13Bus/IEEE13Nodeckt_EXP_POWERS.CSV
Element, Terminal, P(kW), Q(kvar),  P_Normal, Q_Normal, P_Emergency, Q_Emergency
"Transformer.SUB"       ,   1,      3021.4,      1175.9,         0.0,         0.0,         0.0,         0.0
"Transformer.SUB"       ,   2,     -3021.4,     -1175.7
"Transformer.REG1"      ,   1,      1026.0,       442.2,         0.0,         0.0,         0.0,         0.0
"Transformer.REG1"      ,   2,     -1026.0,      -442.2
"Transformer.REG2"      ,   1,       901.4,       280.6,         0.0,         0.0,         0.0,         0.0
"Transformer.REG2"      ,   2,      -901.3,      -280.6
"Transformer.REG3"      ,   1,      1093.9,       452.8,         0.0,         0.0,         0.0,         0.0
"Transformer.REG3"      ,   2,     -1093.8,      -452.7
"Transformer.634-A-1"   ,   1,         3.2,         0.0,         0.0,         0.0,         0.0,         0.0
"Transformer.634-A-1"   ,   2,        -3.2,        -0.0
"Transformer.634-A-2"   ,   1,         3.2,         0.0,         0.0,         0.0,         0.0,         0.0
"Transformer.634-A-2"   ,   2,        -3.2,        -0.0
"Transformer.634-A-3"   ,   1,         3.2,         0.0,         0.0,         0.0,         0.0,         0.0
"Transformer.634-A-3"   ,   2,        -3.2,        -0.0
"Transformer.634-A-4"   ,   1,         3.2,         0.0,         0.0,         0.0,         0.0,         0.0
"Transformer.634-A-4"   ,   2,        -3.2,        -0.0
"Transformer.634-A-5"   ,   1,         3.2,         0.0,         0.0,         0.0,         0.0,         0.0
"Transformer.634-A-5"   ,   2,        -3.2,        -0.0
"Transformer.634-A-6"   ,   1,         3.2,         0.0,         0.0,         0.0,         0.0,         0.0
"Transformer.634-A-6"   ,   2,        -3.2,        -0.0
"Transformer.634-B-1"   ,   1,         3.3,         0.0,         0.0,         0.0,         0.0,         0.0
"Transformer.634-B-1"   ,   2,        -3.3,        -0.0
"Transformer.634-B-2"   ,   1,         3.3,         0.0,         0.0,         0.0,         0.0,         0.0
"Transformer.634-B-2"   ,   2,        -3.3,        -0.0
"Transformer.634-B-3"   ,   1,         3.3,         0.0,         0.0,         0.0,         0.0,         0.0
"Transformer.634-B-3"   ,   2,        -3.3,        -0.0
"Transformer.634-B-4"   ,   1,         3.3,         0.0,         0.0,         0.0,         0.0,         0.0
"Transformer.634-B-4"   ,   2,        -3.3,        -0.0
"Transformer.634-B-5"   ,   1,         3.3,         0.0,         0.0,         0.0,         0.0,         0.0
"Transformer.634-B-5"   ,   2,        -3.3,        -0.0
"Transformer.634-B-6"   ,   1,         3.3,         0.0,         0.0,         0.0,         0.0,         0.0
"Transformer.634-B-6"   ,   2,        -3.3,        -0.0
"Transformer.634-C-1"   ,   1,         3.1,         0.0,         0.0,         0.0,         0.0,         0.0
"Transformer.634-C-1"   ,   2,        -3.1,        -0.0
"Transformer.634-C-2"   ,   1,         3.1,         0.0,         0.0,         0.0,         0.0,         0.0
"Transformer.634-C-2"   ,   2,        -3.1,        -0.0
"Transformer.634-C-3"   ,   1,         3.1,         0.0,         0.0,         0.0,         0.0,         0.0
"Transformer.634-C-3"   ,   2,        -3.1,        -0.0
"Transformer.634-C-4"   ,   1,         3.1,         0.0,         0.0,         0.0,         0.0,         0.0
"Transformer.634-C-4"   ,   2,        -3.1,        -0.0
"Transformer.634-C-5"   ,   1,         3.1,         0.0,         0.0,         0.0,         0.0,         0.0
"Transformer.634-C-5"   ,   2,        -3.1,        -0.0
"Transformer.634-C-6"   ,   1,         3.1,         0.0,         0.0,         0.0,         0.0,         0.0
"Transformer.634-C-6"   ,   2,        -3.1,        -0.0
"Transformer.633-A-1"   ,   1,         3.2,         0.0,         0.0,         0.0,         0.0,         0.0
"Transformer.633-A-1"   ,   2,        -3.2,        -0.0
"Transformer.633-A-2"   ,   1,         3.2,         0.0,         0.0,         0.0,         0.0,         0.0
"Transformer.633-A-2"   ,   2,        -3.2,        -0.0
"Transformer.633-A-3"   ,   1,         3.2,         0.0,         0.0,         0.0,         0.0,         0.0
"Transformer.633-A-3"   ,   2,        -3.2,        -0.0
"Transformer.633-A-4"   ,   1,         3.2,         0.0,         0.0,         0.0,         0.0,         0.0
"Transformer.633-A-4"   ,   2,        -3.2,        -0.0
"Transformer.633-A-5"   ,   1,         3.2,         0.0,         0.0,         0.0,         0.0,         0.0
"Transformer.633-A-5"   ,   2,        -3.2,        -0.0
"Transformer.633-A-6"   ,   1,         3.2,         0.0,         0.0,         0.0,         0.0,         0.0
"Transformer.633-A-6"   ,   2,        -3.2,        -0.0
"Transformer.633-A-7"   ,   1,         3.2,         0.0,         0.0,         0.0,         0.0,         0.0
"Transformer.633-A-7"   ,   2,        -3.2,        -0.0
"Transformer.633-A-8"   ,   1,         3.2,         0.0,         0.0,         0.0,         0.0,         0.0
"Transformer.633-A-8"   ,   2,        -3.2,        -0.0
"Transformer.633-B-1"   ,   1,         3.3,         0.0,         0.0,         0.0,         0.0,         0.0
"Transformer.633-B-1"   ,   2,        -3.3,        -0.0
"Transformer.633-B-2"   ,   1,         3.3,         0.0,         0.0,         0.0,         0.0,         0.0
"Transformer.633-B-2"   ,   2,        -3.3,        -0.0
"Transformer.633-B-3"   ,   1,         3.3,         0.0,         0.0,         0.0,         0.0,         0.0
"Transformer.633-B-3"   ,   2,        -3.3,        -0.0
"Transformer.633-B-4"   ,   1,         3.3,         0.0,         0.0,         0.0,         0.0,         0.0
"Transformer.633-B-4"   ,   2,        -3.3,        -0.0
"Transformer.633-B-5"   ,   1,         3.3,         0.0,         0.0,         0.0,         0.0,         0.0
"Transformer.633-B-5"   ,   2,        -3.3,        -0.0
"Transformer.633-B-6"   ,   1,         3.3,         0.0,         0.0,         0.0,         0.0,         0.0
"Transformer.633-B-6"   ,   2,        -3.3,        -0.0
"Transformer.633-B-7"   ,   1,         3.3,         0.0,         0.0,         0.0,         0.0,         0.0
"Transformer.633-B-7"   ,   2,        -3.3,        -0.0
"Transformer.633-B-8"   ,   1,         3.3,         0.0,         0.0,         0.0,         0.0,         0.0
"Transformer.633-B-8"   ,   2,        -3.3,        -0.0
"Transformer.633-C-1"   ,   1,         3.1,         0.0,         0.0,         0.0,         0.0,         0.0
"Transformer.633-C-1"   ,   2,        -3.1,        -0.0
"Transformer.633-C-2"   ,   1,         3.1,         0.0,         0.0,         0.0,         0.0,         0.0
"Transformer.633-C-2"   ,   2,        -3.1,        -0.0
"Transformer.633-C-3"   ,   1,         3.1,         0.0,         0.0,         0.0,         0.0,         0.0
"Transformer.633-C-3"   ,   2,        -3.1,        -0.0
"Transformer.633-C-4"   ,   1,         3.1,         0.0,         0.0,         0.0,         0.0,         0.0
"Transformer.633-C-4"   ,   2,        -3.1,        -0.0
"Transformer.633-C-5"   ,   1,         3.1,         0.0,         0.0,         0.0,         0.0,         0.0
"Transformer.633-C-5"   ,   2,        -3.1,        -0.0
"Transformer.633-C-6"   ,   1,         3.1,         0.0,         0.0,         0.0,         0.0,         0.0
"Transformer.633-C-6"   ,   2,        -3.1,        -0.0
"Transformer.633-C-7"   ,   1,        -0.0,         0.0,         0.0,         0.0,         0.0,         0.0
"Transformer.633-C-7"   ,   2,         0.0,         0.0
"Transformer.633-C-8"   ,   1,         0.0,         0.0,         0.0,         0.0,         0.0,         0.0
"Transformer.633-C-8"   ,   2,        -0.0,         0.0
"Transformer.611-C-1"   ,   1,         2.9,         0.0,         0.0,         0.0,         0.0,         0.0
"Transformer.611-C-1"   ,   2,        -2.9,        -0.0
"Transformer.611-C-2"   ,   1,         2.9,         0.0,         0.0,         0.0,         0.0,         0.0
"Transformer.611-C-2"   ,   2,        -2.9,        -0.0
"Transformer.611-C-3"   ,   1,         2.9,         0.0,         0.0,         0.0,         0.0,         0.0
"Transformer.611-C-3"   ,   2,        -2.9,        -0.0
"Transformer.611-C-4"   ,   1,         2.9,         0.0,         0.0,         0.0,         0.0,         0.0
"Transformer.611-C-4"   ,   2,        -2.9,        -0.0
"Transformer.611-C-5"   ,   1,         2.9,         0.0,         0.0,         0.0,         0.0,         0.0
"Transformer.611-C-5"   ,   2,        -2.9,        -0.0
"Transformer.611-C-6"   ,   1,         2.9,         0.0,         0.0,         0.0,         0.0,         0.0
"Transformer.611-C-6"   ,   2,        -2.9,        -0.0
"Transformer.611-C-7"   ,   1,         2.9,         0.0,         0.0,         0.0,         0.0,         0.0
"Transformer.611-C-7"   ,   2,        -2.9,        -0.0
"Transformer.611-C-8"   ,   1,         2.9,         0.0,         0.0,         0.0,         0.0,         0.0
"Transformer.611-C-8"   ,   2,        -2.9,        -0.0
"Transformer.652-A-1"   ,   1,         3.0,         0.0,         0.0,         0.0,         0.0,         0.0
"Transformer.652-A-1"   ,   2,        -3.0,        -0.0
"Transformer.652-A-2"   ,   1,         3.0,         0.0,         0.0,         0.0,         0.0,         0.0
"Transformer.652-A-2"   ,   2,        -3.0,        -0.0
"Transformer.652-A-3"   ,   1,         3.0,         0.0,         0.0,         0.0,         0.0,         0.0
"Transformer.652-A-3"   ,   2,        -3.0,        -0.0
"Transformer.652-A-4"   ,   1,         3.0,         0.0,         0.0,         0.0,         0.0,         0.0
"Transformer.652-A-4"   ,   2,        -3.0,        -0.0
"Transformer.652-A-5"   ,   1,         3.0,         0.0,         0.0,         0.0,         0.0,         0.0
"Transformer.652-A-5"   ,   2,        -3.0,        -0.0
"Transformer.652-A-6"   ,   1,         3.0,         0.0,         0.0,         0.0,         0.0,         0.0
"Transformer.652-A-6"   ,   2,        -3.0,        -0.0
"Transformer.652-A-7"   ,   1,         3.0,         0.0,         0.0,         0.0,         0.0,         0.0
"Transformer.652-A-7"   ,   2,        -3.0,        -0.0
"Transformer.652-A-8"   ,   1,         3.0,         0.0,         0.0,         0.0,         0.0,         0.0
"Transformer.652-A-8"   ,   2,        -3.0,        -0.0
"Capacitor.CAP1"        ,   1,         0.0,      -597.0,         0.0,         0.0,         0.0,         0.0
"Capacitor.CAP1"        ,   2,         0.0,         0.0
"Capacitor.CAP2"        ,   1,         0.0,       -95.9,         0.0,         0.0,         0.0,         0.0
"Capacitor.CAP2"        ,   2,         0.0,         0.0
"Line.650632"           ,   1,      3021.2,      1175.5,       462.5,       179.9,         0.0,         0.0
"Line.650632"           ,   2,     -2980.9,     -1045.3
"Line.632670"           ,   1,      2444.3,       782.7,       163.3,        52.3,         0.0,         0.0
"Line.632670"           ,   2,     -2434.3,      -751.0
"Line.670671"           ,   1,      2234.3,       635.0,       109.2,        31.0,         0.0,         0.0
"Line.670671"           ,   2,     -2217.2,      -580.5
"Line.671680"           ,   1,         0.0,        -0.0,         0.0,         0.0,         0.0,         0.0
"Line.671680"           ,   2,        -0.0,        -0.0
"Line.632633"           ,   1,       128.9,         0.2,         0.0,         0.0,         0.0,         0.0
"Line.632633"           ,   2,      -128.8,        -0.1
"Line.632645"           ,   1,       407.7,       262.4,         0.0,         0.0,         0.0,         0.0
"Line.632645"           ,   2,      -405.0,      -260.0
"Line.645646"           ,   1,       235.0,       135.0,         0.0,         0.0,         0.0,         0.0
"Line.645646"           ,   2,      -234.5,      -134.6
"Line.692675"           ,   1,       847.2,      -132.6,         0.0,         0.0,         0.0,         0.0
"Line.692675"           ,   2,      -843.0,       135.0
"Line.671684"           ,   1,        47.5,       -95.7,         0.0,         0.0,         0.0,         0.0
"Line.671684"           ,   2,       -47.4,        95.8
"Line.684611"           ,   1,        23.6,       -95.8,         0.0,         0.0,         0.0,         0.0
"Line.684611"           ,   2,       -23.5,        95.9
"Line.684652"           ,   1,        23.8,        -0.0,         0.0,         0.0,         0.0,         0.0
"Line.684652"           ,   2,       -23.7,        -0.1
"Line.6336304"          ,   1,        57.9,         0.1,         0.0,         0.0,         0.0,         0.0
"Line.6336304"          ,   2,       -57.9,        -0.0
"Line.634.1634-2.1"     ,   1,        28.5,         1.2,         0.0,         0.0,         0.0,         0.0
"Line.634.1634-2.1"     ,   2,       -28.5,        -1.2
"Line.634-2.1634-3.1"   ,   1,        22.8,         1.0,         0.0,         0.0,         0.0,         0.0
"Line.634-2.1634-3.1"   ,   2,       -22.8,        -1.0
"Line.634-3.1634-4.1"   ,   1,        17.1,         0.7,         0.0,         0.0,         0.0,         0.0
"Line.634-3.1634-4.1"   ,   2,       -17.1,        -0.7
"Line.634-4.1634-5.1"   ,   1,        11.4,         0.5,         0.0,         0.0,         0.0,         0.0
"Line.634-4.1634-5.1"   ,   2,       -11.4,        -0.5
"Line.634-5.1634-6.1"   ,   1,         5.7,         0.2,         0.0,         0.0,         0.0,         0.0
"Line.634-5.1634-6.1"   ,   2,        -5.7,        -0.2
"Line.634.2634-2.2"     ,   1,         9.3,        -0.4,         0.0,         0.0,         0.0,         0.0
"Line.634.2634-2.2"     ,   2,        -9.3,         0.4
"Line.634-2.2634-3.2"   ,   1,         7.5,        -0.3,         0.0,         0.0,         0.0,         0.0
"Line.634-2.2634-3.2"   ,   2,        -7.5,         0.3
"Line.634-3.2634-4.2"   ,   1,         5.6,        -0.3,         0.0,         0.0,         0.0,         0.0
"Line.634-3.2634-4.2"   ,   2,        -5.6,         0.2
"Line.634-4.2634-5.2"   ,   1,         3.7,        -0.2,         0.0,         0.0,         0.0,         0.0
"Line.634-4.2634-5.2"   ,   2,        -3.7,         0.2
"Line.634-5.2634-6.2"   ,   1,         1.9,        -0.1,         0.0,         0.0,         0.0,         0.0
"Line.634-5.2634-6.2"   ,   2,        -1.9,         0.1
"Line.634.3634-2.3"     ,   1,        10.4,        -0.8,         0.0,         0.0,         0.0,         0.0
"Line.634.3634-2.3"     ,   2,       -10.4,         0.8
"Line.634-2.3634-3.3"   ,   1,         8.3,        -0.6,         0.0,         0.0,         0.0,         0.0
"Line.634-2.3634-3.3"   ,   2,        -8.3,         0.6
"Line.634-3.3634-4.3"   ,   1,         6.2,        -0.5,         0.0,         0.0,         0.0,         0.0
"Line.634-3.3634-4.3"   ,   2,        -6.2,         0.5
"Line.634-4.3634-5.3"   ,   1,         4.2,        -0.3,         0.0,         0.0,         0.0,         0.0
"Line.634-4.3634-5.3"   ,   2,        -4.2,         0.3
"Line.634-5.3634-6.3"   ,   1,         2.1,        -0.2,         0.0,         0.0,         0.0,         0.0
"Line.634-5.3634-6.3"   ,   2,        -2.1,         0.2
"Line.634-1'.1634-1'1.1",   1,         0.9,         0.0,         0.0,         0.0,         0.0,         0.0
"Line.634-1'.1634-1'1.1",   2,        -0.8,         0.0
"Line.634-1'.1634-1'2.1",   1,         0.9,         0.0,         0.0,         0.0,         0.0,         0.0
"Line.634-1'.1634-1'2.1",   2,        -0.8,         0.0
"Line.634-1'.1634-1'3.1",   1,         0.7,         0.0,         0.0,         0.0,         0.0,         0.0
"Line.634-1'.1634-1'3.1",   2,        -0.7,         0.0
"Line.634-1'.1634-1'4.1",   1,         0.7,         0.0,         0.0,         0.0,         0.0,         0.0
"Line.634-1'.1634-1'4.1",   2,        -0.7,         0.0
"Line.634-2'.1634-2'1.1",   1,         0.9,         0.0,         0.0,         0.0,         0.0,         0.0
"Line.634-2'.1634-2'1.1",   2,        -0.8,         0.0
"Line.634-2'.1634-2'2.1",   1,         0.9,         0.0,         0.0,         0.0,         0.0,         0.0
"Line.634-2'.1634-2'2.1",   2,        -0.8,         0.0
"Line.634-2'.1634-2'3.1",   1,         0.7,         0.0,         0.0,         0.0,         0.0,         0.0
"Line.634-2'.1634-2'3.1",   2,        -0.7,         0.0
"Line.634-2'.1634-2'4.1",   1,         0.7,         0.0,         0.0,         0.0,         0.0,         0.0
"Line.634-2'.1634-2'4.1",   2,        -0.7,         0.0
"Line.634-3'.1634-3'1.1",   1,         0.9,         0.0,         0.0,         0.0,         0.0,         0.0
"Line.634-3'.1634-3'1.1",   2,        -0.8,         0.0
"Line.634-3'.1634-3'2.1",   1,         0.9,         0.0,         0.0,         0.0,         0.0,         0.0
"Line.634-3'.1634-3'2.1",   2,        -0.8,         0.0
"Line.634-3'.1634-3'3.1",   1,         0.7,         0.0,         0.0,         0.0,         0.0,         0.0
"Line.634-3'.1634-3'3.1",   2,        -0.7,         0.0
"Line.634-3'.1634-3'4.1",   1,         0.7,         0.0,         0.0,         0.0,         0.0,         0.0
"Line.634-3'.1634-3'4.1",   2,        -0.7,         0.0
"Line.634-4'.1634-4'1.1",   1,         0.9,         0.0,         0.0,         0.0,         0.0,         0.0
"Line.634-4'.1634-4'1.1",   2,        -0.8,         0.0
"Line.634-4'.1634-4'2.1",   1,         0.9,         0.0,         0.0,         0.0,         0.0,         0.0
"Line.634-4'.1634-4'2.1",   2,        -0.8,         0.0
"Line.634-4'.1634-4'3.1",   1,         0.7,         0.0,         0.0,         0.0,         0.0,         0.0
"Line.634-4'.1634-4'3.1",   2,        -0.7,         0.0
"Line.634-4'.1634-4'4.1",   1,         0.7,         0.0,         0.0,         0.0,         0.0,         0.0
"Line.634-4'.1634-4'4.1",   2,        -0.7,         0.0
"Line.634-5'.1634-5'1.1",   1,         0.9,         0.0,         0.0,         0.0,         0.0,         0.0
"Line.634-5'.1634-5'1.1",   2,        -0.8,         0.0
"Line.634-5'.1634-5'2.1",   1,         0.9,         0.0,         0.0,         0.0,         0.0,         0.0
"Line.634-5'.1634-5'2.1",   2,        -0.8,         0.0
"Line.634-5'.1634-5'3.1",   1,         0.7,         0.0,         0.0,         0.0,         0.0,         0.0
"Line.634-5'.1634-5'3.1",   2,        -0.7,         0.0
"Line.634-5'.1634-5'4.1",   1,         0.7,         0.0,         0.0,         0.0,         0.0,         0.0
"Line.634-5'.1634-5'4.1",   2,        -0.7,         0.0
"Line.634-6'.1634-6'1.1",   1,         0.8,         0.0,         0.0,         0.0,         0.0,         0.0
"Line.634-6'.1634-6'1.1",   2,        -0.8,         0.0
"Line.634-6'.1634-6'2.1",   1,         0.8,         0.0,         0.0,         0.0,         0.0,         0.0
"Line.634-6'.1634-6'2.1",   2,        -0.8,         0.0
"Line.634-6'.1634-6'3.1",   1,         0.7,         0.0,         0.0,         0.0,         0.0,         0.0
"Line.634-6'.1634-6'3.1",   2,        -0.7,         0.0
"Line.634-6'.1634-6'4.1",   1,         0.7,         0.0,         0.0,         0.0,         0.0,         0.0
"Line.634-6'.1634-6'4.1",   2,        -0.7,         0.0
"Line.634-1'.2634-1'1.2",   1,         0.9,         0.0,         0.0,         0.0,         0.0,         0.0
"Line.634-1'.2634-1'1.2",   2,        -0.9,        -0.0
"Line.634-1'.2634-1'2.2",   1,         0.9,         0.0,         0.0,         0.0,         0.0,         0.0
"Line.634-1'.2634-1'2.2",   2,        -0.9,        -0.0
"Line.634-1'.2634-1'3.2",   1,         0.8,         0.0,         0.0,         0.0,         0.0,         0.0
"Line.634-1'.2634-1'3.2",   2,        -0.8,        -0.0
"Line.634-1'.2634-1'4.2",   1,         0.8,         0.0,         0.0,         0.0,         0.0,         0.0
"Line.634-1'.2634-1'4.2",   2,        -0.8,        -0.0
"Line.634-2'.2634-2'1.2",   1,         0.9,         0.0,         0.0,         0.0,         0.0,         0.0
"Line.634-2'.2634-2'1.2",   2,        -0.9,        -0.0
"Line.634-2'.2634-2'2.2",   1,         0.9,         0.0,         0.0,         0.0,         0.0,         0.0
"Line.634-2'.2634-2'2.2",   2,        -0.9,        -0.0
"Line.634-2'.2634-2'3.2",   1,         0.8,         0.0,         0.0,         0.0,         0.0,         0.0
"Line.634-2'.2634-2'3.2",   2,        -0.8,        -0.0
"Line.634-2'.2634-2'4.2",   1,         0.8,         0.0,         0.0,         0.0,         0.0,         0.0
"Line.634-2'.2634-2'4.2",   2,        -0.8,        -0.0
"Line.634-3'.2634-3'1.2",   1,         0.9,         0.0,         0.0,         0.0,         0.0,         0.0
"Line.634-3'.2634-3'1.2",   2,        -0.9,        -0.0
"Line.634-3'.2634-3'2.2",   1,         0.9,         0.0,         0.0,         0.0,         0.0,         0.0
"Line.634-3'.2634-3'2.2",   2,        -0.9,        -0.0
"Line.634-3'.2634-3'3.2",   1,         0.8,         0.0,         0.0,         0.0,         0.0,         0.0
"Line.634-3'.2634-3'3.2",   2,        -0.8,        -0.0
"Line.634-3'.2634-3'4.2",   1,         0.8,         0.0,         0.0,         0.0,         0.0,         0.0
"Line.634-3'.2634-3'4.2",   2,        -0.8,        -0.0
"Line.634-4'.2634-4'1.2",   1,         0.9,         0.0,         0.0,         0.0,         0.0,         0.0
"Line.634-4'.2634-4'1.2",   2,        -0.9,        -0.0
"Line.634-4'.2634-4'2.2",   1,         0.9,         0.0,         0.0,         0.0,         0.0,         0.0
"Line.634-4'.2634-4'2.2",   2,        -0.9,        -0.0
"Line.634-4'.2634-4'3.2",   1,         0.8,         0.0,         0.0,         0.0,         0.0,         0.0
"Line.634-4'.2634-4'3.2",   2,        -0.8,        -0.0
"Line.634-4'.2634-4'4.2",   1,         0.8,         0.0,         0.0,         0.0,         0.0,         0.0
"Line.634-4'.2634-4'4.2",   2,        -0.8,        -0.0
"Line.634-5'.2634-5'1.2",   1,         0.9,         0.0,         0.0,         0.0,         0.0,         0.0
"Line.634-5'.2634-5'1.2",   2,        -0.9,        -0.0
"Line.634-5'.2634-5'2.2",   1,         0.9,         0.0,         0.0,         0.0,         0.0,         0.0
"Line.634-5'.2634-5'2.2",   2,        -0.9,        -0.0
"Line.634-5'.2634-5'3.2",   1,         0.8,         0.0,         0.0,         0.0,         0.0,         0.0
"Line.634-5'.2634-5'3.2",   2,        -0.8,        -0.0
"Line.634-5'.2634-5'4.2",   1,         0.8,         0.0,         0.0,         0.0,         0.0,         0.0
"Line.634-5'.2634-5'4.2",   2,        -0.8,        -0.0
"Line.634-6'.2634-6'1.2",   1,         0.9,         0.0,         0.0,         0.0,         0.0,         0.0
"Line.634-6'.2634-6'1.2",   2,        -0.9,        -0.0
"Line.634-6'.2634-6'2.2",   1,         0.9,         0.0,         0.0,         0.0,         0.0,         0.0
"Line.634-6'.2634-6'2.2",   2,        -0.9,        -0.0
"Line.634-6'.2634-6'3.2",   1,         0.8,         0.0,         0.0,         0.0,         0.0,         0.0
"Line.634-6'.2634-6'3.2",   2,        -0.8,        -0.0
"Line.634-6'.2634-6'4.2",   1,         0.8,         0.0,         0.0,         0.0,         0.0,         0.0
"Line.634-6'.2634-6'4.2",   2,        -0.8,        -0.0
"Line.634-1'.3634-1'1.3",   1,         0.8,         0.0,         0.0,         0.0,         0.0,         0.0
"Line.634-1'.3634-1'1.3",   2,        -0.8,         0.0
"Line.634-1'.3634-1'2.3",   1,         0.8,         0.0,         0.0,         0.0,         0.0,         0.0
"Line.634-1'.3634-1'2.3",   2,        -0.8,         0.0
"Line.634-1'.3634-1'3.3",   1,         0.7,         0.0,         0.0,         0.0,         0.0,         0.0
"Line.634-1'.3634-1'3.3",   2,        -0.7,         0.0
"Line.634-1'.3634-1'4.3",   1,         0.7,         0.0,         0.0,         0.0,         0.0,         0.0
"Line.634-1'.3634-1'4.3",   2,        -0.7,         0.0
"Line.634-2'.3634-2'1.3",   1,         0.8,         0.0,         0.0,         0.0,         0.0,         0.0
"Line.634-2'.3634-2'1.3",   2,        -0.8,         0.0
"Line.634-2'.3634-2'2.3",   1,         0.8,         0.0,         0.0,         0.0,         0.0,         0.0
"Line.634-2'.3634-2'2.3",   2,        -0.8,         0.0
"Line.634-2'.3634-2'3.3",   1,         0.7,         0.0,         0.0,         0.0,         0.0,         0.0
"Line.634-2'.3634-2'3.3",   2,        -0.7,         0.0
"Line.634-2'.3634-2'4.3",   1,         0.7,         0.0,         0.0,         0.0,         0.0,         0.0
"Line.634-2'.3634-2'4.3",   2,        -0.7,         0.0
"Line.634-3'.3634-3'1.3",   1,         0.8,         0.0,         0.0,         0.0,         0.0,         0.0
"Line.634-3'.3634-3'1.3",   2,        -0.8,         0.0
"Line.634-3'.3634-3'2.3",   1,         0.8,         0.0,         0.0,         0.0,         0.0,         0.0
"Line.634-3'.3634-3'2.3",   2,        -0.8,         0.0
"Line.634-3'.3634-3'3.3",   1,         0.7,         0.0,         0.0,         0.0,         0.0,         0.0
"Line.634-3'.3634-3'3.3",   2,        -0.7,         0.0
"Line.634-3'.3634-3'4.3",   1,         0.7,         0.0,         0.0,         0.0,         0.0,         0.0
"Line.634-3'.3634-3'4.3",   2,        -0.7,         0.0
"Line.634-4'.3634-4'1.3",   1,         0.8,         0.0,         0.0,         0.0,         0.0,         0.0
"Line.634-4'.3634-4'1.3",   2,        -0.8,         0.0
"Line.634-4'.3634-4'2.3",   1,         0.8,         0.0,         0.0,         0.0,         0.0,         0.0
"Line.634-4'.3634-4'2.3",   2,        -0.8,         0.0
"Line.634-4'.3634-4'3.3",   1,         0.7,         0.0,         0.0,         0.0,         0.0,         0.0
"Line.634-4'.3634-4'3.3",   2,        -0.7,         0.0
"Line.634-4'.3634-4'4.3",   1,         0.7,         0.0,         0.0,         0.0,         0.0,         0.0
"Line.634-4'.3634-4'4.3",   2,        -0.7,         0.0
"Line.634-5'.3634-5'1.3",   1,         0.8,         0.0,         0.0,         0.0,         0.0,         0.0
"Line.634-5'.3634-5'1.3",   2,        -0.8,         0.0
"Line.634-5'.3634-5'2.3",   1,         0.8,         0.0,         0.0,         0.0,         0.0,         0.0
"Line.634-5'.3634-5'2.3",   2,        -0.8,         0.0
"Line.634-5'.3634-5'3.3",   1,         0.7,         0.0,         0.0,         0.0,         0.0,         0.0
"Line.634-5'.3634-5'3.3",   2,        -0.7,         0.0
"Line.634-5'.3634-5'4.3",   1,         0.7,         0.0,         0.0,         0.0,         0.0,         0.0
"Line.634-5'.3634-5'4.3",   2,        -0.7,         0.0
"Line.634-6'.3634-6'1.3",   1,         0.8,         0.0,         0.0,         0.0,         0.0,         0.0
"Line.634-6'.3634-6'1.3",   2,        -0.8,         0.0
"Line.634-6'.3634-6'2.3",   1,         0.8,         0.0,         0.0,         0.0,         0.0,         0.0
"Line.634-6'.3634-6'2.3",   2,        -0.8,         0.0
"Line.634-6'.3634-6'3.3",   1,         0.7,         0.0,         0.0,         0.0,         0.0,         0.0
"Line.634-6'.3634-6'3.3",   2,        -0.7,         0.0
"Line.634-6'.3634-6'4.3",   1,         0.7,         0.0,         0.0,         0.0,         0.0,         0.0
"Line.634-6'.3634-6'4.3",   2,        -0.7,         0.0
"Line.633.1633-2.1"     ,   1,        38.3,         1.6,         0.0,         0.0,         0.0,         0.0
"Line.633.1633-2.1"     ,   2,       -38.3,        -1.6
"Line.633-2.1633-3.1"   ,   1,        32.6,         1.3,         0.0,         0.0,         0.0,         0.0
"Line.633-2.1633-3.1"   ,   2,       -32.6,        -1.3
"Line.633-3.1633-4.1"   ,   1,        26.9,         1.1,         0.0,         0.0,         0.0,         0.0
"Line.633-3.1633-4.1"   ,   2,       -26.8,        -1.1
"Line.633-4.1633-5.1"   ,   1,        21.1,         0.8,         0.0,         0.0,         0.0,         0.0
"Line.633-4.1633-5.1"   ,   2,       -21.1,        -0.8
"Line.633-5.1633-6.1"   ,   1,        15.4,         0.6,         0.0,         0.0,         0.0,         0.0
"Line.633-5.1633-6.1"   ,   2,       -15.4,        -0.6
"Line.633-6.16337.1"    ,   1,         9.7,         0.3,         0.0,         0.0,         0.0,         0.0
"Line.633-6.16337.1"    ,   2,        -9.7,        -0.3
"Line.633-7.1633-8.1"   ,   1,         4.9,         0.2,         0.0,         0.0,         0.0,         0.0
"Line.633-7.1633-8.1"   ,   2,        -4.9,        -0.2
"Line.633.2633-2.2"     ,   1,        11.4,        -0.8,         0.0,         0.0,         0.0,         0.0
"Line.633.2633-2.2"     ,   2,       -11.4,         0.8
"Line.633-2.2633-3.2"   ,   1,         9.6,        -0.7,         0.0,         0.0,         0.0,         0.0
"Line.633-2.2633-3.2"   ,   2,        -9.6,         0.7
"Line.633-3.2633-4.2"   ,   1,         7.7,        -0.6,         0.0,         0.0,         0.0,         0.0
"Line.633-3.2633-4.2"   ,   2,        -7.7,         0.6
"Line.633-4.2633-5.2"   ,   1,         5.8,        -0.5,         0.0,         0.0,         0.0,         0.0
"Line.633-4.2633-5.2"   ,   2,        -5.8,         0.5
"Line.633-5.2633-6.2"   ,   1,         4.0,        -0.4,         0.0,         0.0,         0.0,         0.0
"Line.633-5.2633-6.2"   ,   2,        -4.0,         0.4
"Line.633-6.26337.2"    ,   1,         2.1,        -0.4,         0.0,         0.0,         0.0,         0.0
"Line.633-6.26337.2"    ,   2,        -2.1,         0.4
"Line.633-7.2633-8.2"   ,   1,         1.0,        -0.2,         0.0,         0.0,         0.0,         0.0
"Line.633-7.2633-8.2"   ,   2,        -1.0,         0.2
"Line.633.3633-2.3"     ,   1,        11.6,        -0.7,         0.0,         0.0,         0.0,         0.0
"Line.633.3633-2.3"     ,   2,       -11.6,         0.7
"Line.633-2.3633-3.3"   ,   1,         9.5,        -0.6,         0.0,         0.0,         0.0,         0.0
"Line.633-2.3633-3.3"   ,   2,        -9.5,         0.6
"Line.633-3.3633-4.3"   ,   1,         7.4,        -0.4,         0.0,         0.0,         0.0,         0.0
"Line.633-3.3633-4.3"   ,   2,        -7.4,         0.4
"Line.633-4.3633-5.3"   ,   1,         5.3,        -0.3,         0.0,         0.0,         0.0,         0.0
"Line.633-4.3633-5.3"   ,   2,        -5.3,         0.3
"Line.633-5.3633-6.3"   ,   1,         3.3,        -0.1,         0.0,         0.0,         0.0,         0.0
"Line.633-5.3633-6.3"   ,   2,        -3.3,         0.1
...