13Bus/IEEE13Nodeckt_Losses.Txt

LOSSES REPORT

Power Delivery Element Loss Report

Element                  kW Losses    % of Power   kvar Losses

"Transformer.SUB"          0.00790,     0.00     0.0674016
"Transformer.REG1"         0.02399,     0.00     0.0257178
"Transformer.REG2"         0.02131,     0.00     0.0230281
"Transformer.REG3"         0.03367,     0.01     0.0353977
"Transformer.634-A-1"      0.04306,     0.17     0.0784642
"Transformer.634-A-2"      0.04311,     0.17     0.0785631
"Transformer.634-A-3"      0.04316,     0.17     0.0786439
"Transformer.634-A-4"      0.04319,     0.17     0.0787065
"Transformer.634-A-5"      0.04322,     0.17     0.0787483
"Transformer.634-A-6"      0.04323,     0.17     0.0787692
"Transformer.634-B-1"      0.02412,     0.12     0.0440376
"Transformer.634-B-2"      0.02413,     0.12     0.0440434
"Transformer.634-B-3"      0.02413,     0.12     0.0440488
"Transformer.634-B-4"      0.04331,     0.17     0.0789164
"Transformer.634-B-5"      0.04331,     0.17     0.0789222
"Transformer.634-B-6"      0.04331,     0.17     0.0789252
"Transformer.634-C-1"      0.00247,     0.04     0.00466036
"Transformer.634-C-2"      0.04283,     0.17     0.0780453
"Transformer.634-C-3"      0.04284,     0.17     0.0780645
"Transformer.634-C-4"      0.04285,     0.17     0.0780766
"Transformer.634-C-5"      0.04285,     0.17     0.0780847
"Transformer.634-C-6"      0.04285,     0.17     0.0780887
"Transformer.633-A-1"      0.04299,     0.17     0.078331
"Transformer.633-A-2"      0.04306,     0.17     0.0784674
"Transformer.633-A-3"      0.04313,     0.17     0.0785837
"Transformer.633-A-4"      0.04318,     0.17     0.0786796
"Transformer.633-A-5"      0.04322,     0.17     0.078755
"Transformer.633-A-6"      0.04325,     0.17     0.0788095
"Transformer.633-A-7"      0.04327,     0.17     0.0788431
"Transformer.633-A-8"      0.00003,      0.0     0.000220732
"Transformer.633-B-1"      0.04442,     0.17     0.0809406
"Transformer.633-B-2"      0.04330,     0.17     0.0788958
"Transformer.633-B-3"      0.04330,     0.17     0.0789023
"Transformer.633-B-4"      0.04330,     0.17     0.0789058
"Transformer.633-B-5"      0.04330,     0.17     0.0789064
"Transformer.633-B-6"      0.04330,     0.17     0.078904
"Transformer.633-B-7"      0.04330,     0.17     0.0788988
"Transformer.633-B-8"      0.00003,      0.0     0.000220885
"Transformer.633-C-1"      0.00000,      0.0     0.00017178
"Transformer.633-C-2"      0.04388,     0.17     0.0799478
"Transformer.633-C-3"      0.04277,     0.17     0.0779305
"Transformer.633-C-4"      0.04277,     0.17     0.0779381
"Transformer.633-C-5"      0.04277,     0.17     0.0779418
"Transformer.633-C-6"      0.04277,     0.17     0.0779414
"Transformer.633-C-7"      0.00000,      0.0     0.000171854
"Transformer.633-C-8"      0.00000,      0.0     0.000171854
"Transformer.611-C-1"      0.00000,      0.0     0.00016509
"Transformer.611-C-2"      0.04222,     0.17     0.0769206
"Transformer.611-C-3"      0.04119,     0.17     0.0750485
"Transformer.611-C-4"      0.04122,     0.17     0.0751087
"Transformer.611-C-5"      0.04124,     0.17     0.075149
"Transformer.611-C-6"      0.04125,     0.17     0.0751691
"Transformer.611-C-7"      0.00000,      0.0     0.000165752
"Transformer.611-C-8"      0.00000,      0.0     0.000165752
"Transformer.652-A-1"      0.00000,      0.0     0.00016365
"Transformer.652-A-2"      0.04187,     0.17     0.0762887
"Transformer.652-A-3"      0.04086,     0.17     0.0744618
"Transformer.652-A-4"      0.04091,     0.17     0.0745442
"Transformer.652-A-5"      0.04094,     0.17     0.0745992
"Transformer.652-A-6"      0.04095,     0.17     0.0746268
"Transformer.652-A-7"      0.00000,      0.0     0.000164555
"Transformer.652-A-8"      0.00000,      0.0     0.000164555
"Capacitor.CAP1"           0.00000,      0.0     -597.377
"Capacitor.CAP2"           0.00000,      0.0     -99.2006
"Line.650632"             15.00832,     0.91     49.414
"Line.632670"              7.45736,     0.35     23.9719
"Line.670671"             12.60473,     0.65     40.2642
"Line.671680"              0.00000,      0.0     -0.00419852
"Line.632633"              2.71411,     0.29     3.48688
"Line.632645"              2.77856,     0.68     2.41367
"Line.645646"              0.52375,     0.22     0.416774
"Line.692675"              4.03254,     0.48     2.36155
"Line.671684"              0.54639,     0.22     0.570121
"Line.684611"              0.33104,     0.27     0.335254
"Line.684652"              0.54905,     0.45     0.133539
"Line.6336304"             0.24360,     0.06     0.771164
"Line.634.1634-2.1"        0.09601,     0.04     0.278082
"Line.634-2.1634-3.1"      0.06169,     0.03     0.177664
"Line.634-3.1634-4.1"      0.03495,     0.03     0.0993992
"Line.634-4.1634-5.1"      0.01554,     0.02     0.0425676
"Line.634-5.1634-6.1"      0.00388,     0.01     0.00845792
"Line.634.2634-2.2"        0.00825,     0.01     0.0264652
"Line.634-2.2634-3.2"      0.00558,     0.01     0.0171118
"Line.634-3.2634-4.2"      0.00345,     0.01     0.00965334
"Line.634-4.2634-5.2"      0.00153,     0.01     0.00295685
"Line.634-5.2634-6.2"      0.00038,      0.0     -0.00106056
"Line.634.3634-2.3"        0.01142,     0.01     0.0321586
"Line.634-2.3634-3.3"      0.00752,     0.01     0.0204056
"Line.634-3.3634-4.3"      0.00446,     0.01     0.0111488
"Line.634-4.3634-5.3"      0.00198,     0.01     0.00362473
"Line.634-5.3634-6.3"      0.00050,      0.0     -0.000889869
"Line.634-1'.1634-1'1.1"   0.04010,     0.62     0.0406467
"Line.634-1'.1634-1'2.1"   0.04010,     0.62     0.0406467
"Line.634-1'.1634-1'3.1"   0.04010,     0.62     0.0406467
"Line.634-1'.1634-1'4.1"   0.04010,     0.62     0.0406467
"Line.634-2'.1634-2'1.1"   0.04015,     0.62     0.0406979
"Line.634-2'.1634-2'2.1"   0.04015,     0.62     0.0406979
"Line.634-2'.1634-2'3.1"   0.04015,     0.62     0.0406979
"Line.634-2'.1634-2'4.1"   0.04015,     0.62     0.0406979
"Line.634-3'.1634-3'1.1"   0.04019,     0.62     0.0407398
"Line.634-3'.1634-3'2.1"   0.04019,     0.62     0.0407398
"Line.634-3'.1634-3'3.1"   0.04019,     0.62     0.0407398
"Line.634-3'.1634-3'4.1"   0.04019,     0.62     0.0407398
"Line.634-4'.1634-4'1.1"   0.04022,     0.62     0.0407722
"Line.634-4'.1634-4'2.1"   0.04022,     0.62     0.0407722
"Line.634-4'.1634-4'3.1"   0.04022,     0.62     0.0407722
"Line.634-4'.1634-4'4.1"   0.04022,     0.62     0.0407722
"Line.634-5'.1634-5'1.1"   0.04024,     0.62     0.0407939
"Line.634-5'.1634-5'2.1"   0.04024,     0.62     0.0407939
"Line.634-5'.1634-5'3.1"   0.04024,     0.62     0.0407939
"Line.634-5'.1634-5'4.1"   0.04024,     0.62     0.0407939
"Line.634-6'.1634-6'1.1"   0.04026,     0.62     0.0408047
"Line.634-6'.1634-6'2.1"   0.04026,     0.62     0.0408047
"Line.634-6'.1634-6'3.1"   0.04026,     0.62     0.0408047
"Line.634-6'.1634-6'4.1"   0.04026,     0.62     0.0408047
"Line.634-1'.2634-1'1.2"   0.00001,      0.0     1.85546E-006
"Line.634-1'.2634-1'2.2"   0.04028,     0.62     0.0408323
"Line.634-1'.2634-1'3.2"   0.04028,     0.62     0.0408323
"Line.634-1'.2634-1'4.2"   0.04028,     0.62     0.0408323
"Line.634-2'.2634-2'1.2"   0.04029,     0.62     0.0408377
"Line.634-2'.2634-2'2.2"   0.00001,      0.0     1.85571E-006
"Line.634-2'.2634-2'3.2"   0.04029,     0.62     0.0408377
"Line.634-2'.2634-2'4.2"   0.04029,     0.62     0.0408377
"Line.634-3'.2634-3'1.2"   0.04029,     0.62     0.0408427
"Line.634-3'.2634-3'2.2"   0.04029,     0.62     0.0408427
"Line.634-3'.2634-3'3.2"   0.00001,      0.0     1.85594E-006
"Line.634-3'.2634-3'4.2"   0.04029,     0.62     0.0408427
"Line.634-4'.2634-4'1.2"   0.04033,     0.62     0.0408809
"Line.634-4'.2634-4'2.2"   0.04033,     0.62     0.0408809
"Line.634-4'.2634-4'3.2"   0.04033,     0.62     0.0408809
"Line.634-4'.2634-4'4.2"   0.04033,     0.62     0.0408809
"Line.634-5'.2634-5'1.2"   0.04033,     0.62     0.040884
"Line.634-5'.2634-5'2.2"   0.04033,     0.62     0.040884
"Line.634-5'.2634-5'3.2"   0.04033,     0.62     0.040884
"Line.634-5'.2634-5'4.2"   0.04033,     0.62     0.040884
"Line.634-6'.2634-6'1.2"   0.04034,     0.62     0.0408855
"Line.634-6'.2634-6'2.2"   0.04034,     0.62     0.0408855
"Line.634-6'.2634-6'3.2"   0.04034,     0.62     0.0408855
"Line.634-6'.2634-6'4.2"   0.04034,     0.62     0.0408855
"Line.634-1'.3634-1'1.3"   0.00001,      0.0     1.83203E-006
"Line.634-1'.3634-1'2.3"   0.00001,      0.0     1.83203E-006
"Line.634-1'.3634-1'3.3"   0.00001,      0.0     1.83203E-006
"Line.634-1'.3634-1'4.3"   0.03977,     0.62     0.0403162
"Line.634-2'.3634-2'1.3"   0.03989,     0.62     0.0404297
"Line.634-2'.3634-2'2.3"   0.03989,     0.62     0.0404297
"Line.634-2'.3634-2'3.3"   0.03989,     0.62     0.0404297
"Line.634-2'.3634-2'4.3"   0.03989,     0.62     0.0404297
"Line.634-3'.3634-3'1.3"   0.03990,     0.62     0.0404397
"Line.634-3'.3634-3'2.3"   0.03990,     0.62     0.0404397
"Line.634-3'.3634-3'3.3"   0.03990,     0.62     0.0404397
"Line.634-3'.3634-3'4.3"   0.03990,     0.62     0.0404397
"Line.634-4'.3634-4'1.3"   0.03990,     0.62     0.0404459
"Line.634-4'.3634-4'2.3"   0.03990,     0.62     0.0404459
"Line.634-4'.3634-4'3.3"   0.03990,     0.62     0.0404459
"Line.634-4'.3634-4'4.3"   0.03990,     0.62     0.0404459
"Line.634-5'.3634-5'1.3"   0.03991,     0.62     0.0404501
"Line.634-5'.3634-5'2.3"   0.03991,     0.62     0.0404501
"Line.634-5'.3634-5'3.3"   0.03991,     0.62     0.0404501
"Line.634-5'.3634-5'4.3"   0.03991,     0.62     0.0404501
"Line.634-6'.3634-6'1.3"   0.03991,     0.62     0.0404522
"Line.634-6'.3634-6'2.3"   0.03991,     0.62     0.0404522
"Line.634-6'.3634-6'3.3"   0.03991,     0.62     0.0404522
"Line.634-6'.3634-6'4.3"   0.03991,     0.62     0.0404522
"Line.633.1633-2.1"        0.13908,     0.05     0.402916
"Line.633-2.1633-3.1"      0.09660,     0.04     0.278773
"Line.633-3.1633-4.1"      0.06186,     0.03     0.177302
"Line.633-4.1633-5.1"      0.03486,     0.03     0.0984874
"Line.633-5.1633-6.1"      0.01561,     0.02     0.0423724
"Line.633-6.16337.1"       0.00413,     0.01     0.00898732
"Line.633-7.1633-8.1"      0.00000,      0.0     -0.00290573
"Line.633.2633-2.2"        0.01216,     0.01     0.040161
"Line.633-2.2633-3.2"      0.00827,     0.01     0.0265273
"Line.633-3.2633-4.2"      0.00517,     0.01     0.015638
"Line.633-4.2633-5.2"      0.00283,     0.01     0.00742937
"Line.633-5.2633-6.2"      0.00126,     0.01     0.00189871
"Line.633-6.26337.2"       0.00046,      0.0     -0.000956072
"Line.633-7.2633-8.2"      0.00000,      0.0     -0.00239733
"Line.633.3633-2.3"        0.01396,     0.02     0.0404888
"Line.633-2.3633-3.3"      0.00923,     0.01     0.0260191
"Line.633-3.3633-4.3"      0.00553,     0.01     0.0146828
"Line.633-4.3633-5.3"      0.00282,     0.01     0.00635376
"Line.633-5.3633-6.3"      0.00110,     0.01     0.00103163
"Line.633-6.26337.3"       0.00037,      0.0     -0.00128422
"Line.633-7.2633-8.3"      0.00000,      0.0     -0.00239193
"Line.633-1'.1633-1'1.1"   0.04003,     0.62     0.0405777
"Line.633-1'.1633-1'2.1"   0.04003,     0.62     0.0405777
"Line.633-1'.1633-1'3.1"   0.04003,     0.62     0.0405777
"Line.633-1'.1633-1'4.1"   0.04003,     0.62     0.0405777
"Line.633-2'.1633-2'1.1"   0.04010,     0.62     0.0406483
"Line.633-2'.1633-2'2.1"   0.04010,     0.62     0.0406483
"Line.633-2'.1633-2'3.1"   0.04010,     0.62     0.0406483
"Line.633-2'.1633-2'4.1"   0.04010,     0.62     0.0406483
"Line.633-3'.1633-3'1.1"   0.04016,     0.62     0.0407086
"Line.633-3'.1633-3'2.1"   0.04016,     0.62     0.0407086
"Line.633-3'.1633-3'3.1"   0.04016,     0.62     0.0407086
"Line.633-3'.1633-3'4.1"   0.04016,     0.62     0.0407086
"Line.633-4'.1633-4'1.1"   0.04021,     0.62     0.0407583
"Line.633-4'.1633-4'2.1"   0.04021,     0.62     0.0407583
"Line.633-4'.1633-4'3.1"   0.04021,     0.62     0.0407583
"Line.633-4'.1633-4'4.1"   0.04021,     0.62     0.0407583
"Line.633-5'.1633-5'1.1"   0.04025,     0.62     0.0407973
"Line.633-5'.1633-5'2.1"   0.04025,     0.62     0.0407973
"Line.633-5'.1633-5'3.1"   0.04025,     0.62     0.0407973
"Line.633-5'.1633-5'4.1"   0.04025,     0.62     0.0407973
"Line.633-6'.1633-6'1.1"   0.04028,     0.62     0.0408256
"Line.633-6'.1633-6'2.1"   0.04028,     0.62     0.0408256
"Line.633-6'.1633-6'3.1"   0.04028,     0.62     0.0408256
"Line.633-6'.1633-6'4.1"   0.04028,     0.62     0.0408256
"Line.633-7'.1633-7'1.1"   0.04029,     0.62     0.040843
"Line.633-7'.1633-7'2.1"   0.04029,     0.62     0.040843
"Line.633-7'.1633-7'3.1"   0.04029,     0.62     0.040843
"Line.633-7'.1633-7'4.1"   0.04029,     0.62     0.040843
"Line.633-8'.1633-8'1.1"   0.00002,      0.0     1.95317E-005
"Line.633-8'.1633-8'2.1"   0.00002,      0.0     1.95317E-005
"Line.633-8'.1633-8'3.1"   0.00002,      0.0     1.95317E-005
"Line.633-8'.1633-8'4.1"   0.00002,      0.0     1.95317E-005
"Line.633-1'.2633-1'1.2"   0.04137,     0.62     0.041932
"Line.633-1'.2633-1'2.2"   0.04137,     0.62     0.041932
"Line.633-1'.2633-1'3.2"   0.04137,     0.62     0.041932
"Line.633-1'.2633-1'4.2"   0.04137,     0.62     0.041932
"Line.633-2'.2633-2'1.2"   0.04032,     0.62     0.0408703
"Line.633-2'.2633-2'2.2"   0.04032,     0.62     0.0408703
"Line.633-2'.2633-2'3.2"   0.04032,     0.62     0.0408703
"Line.633-2'.2633-2'4.2"   0.04032,     0.62     0.0408703
"Line.633-3'.2633-3'1.2"   0.04032,     0.62     0.0408736
"Line.633-3'.2633-3'2.2"   0.04032,     0.62     0.0408736
"Line.633-3'.2633-3'3.2"   0.04032,     0.62     0.0408736
"Line.633-3'.2633-3'4.2"   0.04032,     0.62     0.0408736
"Line.633-4'.2633-4'1.2"   0.04033,     0.62     0.0408754
"Line.633-4'.2633-4'2.2"   0.04033,     0.62     0.0408754
"Line.633-4'.2633-4'3.2"   0.04033,     0.62     0.0408754
"Line.633-4'.2633-4'4.2"   0.04033,     0.62     0.0408754
"Line.633-5'.2633-5'1.2"   0.04033,     0.62     0.0408757
"Line.633-5'.2633-5'2.2"   0.04033,     0.62     0.0408757
"Line.633-5'.2633-5'3.2"   0.04033,     0.62     0.0408757
"Line.633-5'.2633-5'4.2"   0.04033,     0.62     0.0408757
"Line.633-6'.2633-6'1.2"   0.04032,     0.62     0.0408745
"Line.633-6'.2633-6'2.2"   0.04032,     0.62     0.0408745
"Line.633-6'.2633-6'3.2"   0.04032,     0.62     0.0408745
"Line.633-6'.2633-6'4.2"   0.04032,     0.62     0.0408745
"Line.633-7'.2633-7'1.2"   0.04032,     0.62     0.0408718
"Line.633-7'.2633-7'2.2"   0.04032,     0.62     0.0408718
"Line.633-7'.2633-7'3.2"   0.04032,     0.62     0.0408718
"Line.633-7'.2633-7'4.2"   0.04032,     0.62     0.0408718
"Line.633-8'.2633-8'1.2"   0.00002,      0.0     1.95453E-005
"Line.633-8'.2633-8'2.2"   0.00002,      0.0     1.95453E-005
"Line.633-8'.2633-8'3.2"   0.00002,      0.0     1.95453E-005
"Line.633-8'.2633-8'4.2"   0.00002,      0.0     1.95453E-005
"Line.633-1'.3633-1'1.3"   0.00000,      0.0     -4.74758E-006
"Line.633-1'.3633-1'2.3"   0.00000,      0.0     -4.74758E-006
"Line.633-1'.3633-1'3.3"   0.00000,      0.0     -4.74758E-006
"Line.633-1'.3633-1'4.3"   0.00000,      0.0     -4.74758E-006
"Line.633-2'.3633-2'1.3"   0.04086,     0.62     0.0414177
"Line.633-2'.3633-2'2.3"   0.04086,     0.62     0.0414177
"Line.633-2'.3633-2'3.3"   0.04086,     0.62     0.0414177
"Line.633-2'.3633-2'4.3"   0.04086,     0.62     0.0414177
"Line.633-3'.3633-3'1.3"   0.03983,     0.62     0.0403702
"Line.633-3'.3633-3'2.3"   0.03983,     0.62     0.0403702
"Line.633-3'.3633-3'3.3"   0.03983,     0.62     0.0403702
"Line.633-3'.3633-3'4.3"   0.03983,     0.62     0.0403702
"Line.633-4'.3633-4'1.3"   0.03983,     0.62     0.0403742
"Line.633-4'.3633-4'2.3"   0.03983,     0.62     0.0403742
"Line.633-4'.3633-4'3.3"   0.03983,     0.62     0.0403742
"Line.633-4'.3633-4'4.3"   0.03983,     0.62     0.0403742
"Line.633-5'.3633-5'1.3"   0.03983,     0.62     0.0403761
"Line.633-5'.3633-5'2.3"   0.03983,     0.62     0.0403761
"Line.633-5'.3633-5'3.3"   0.03983,     0.62     0.0403761
"Line.633-5'.3633-5'4.3"   0.03983,     0.62     0.0403761
"Line.633-6'.3633-6'1.3"   0.03983,     0.62     0.0403759
"Line.633-6'.3633-6'2.3"   0.03983,     0.62     0.0403759
"Line.633-6'.3633-6'3.3"   0.03983,     0.62     0.0403759
"Line.633-6'.3633-6'4.3"   0.03983,     0.62     0.0403759
"Line.611.3611-2.3"        0.08625,     0.07     0.248033
"Line.611-2.3611-3.3"      0.05494,     0.06     0.1576
"Line.611-3.3611-4.3"      0.03091,     0.04     0.0882132
"Line.611-4.3611-5.3"      0.01374,     0.03     0.0386249
"Line.611-5.3611-6.3"      0.00344,     0.01     0.00886131
"Line.611-6.26117.3"       0.00000,      0.0     -0.00106165
"Line.611-7.2611-8.3"      0.00000,      0.0     -0.00106165
"Line.611-1'.3611-1'1.3"   0.00000,      0.0     -4.56269E-006
"Line.611-1'.3611-1'2.3"   0.00000,      0.0     -4.56269E-006
"Line.611-1'.3611-1'3.3"   0.00000,      0.0     -4.56269E-006
"Line.611-1'.3611-1'4.3"   0.00000,      0.0     -4.56269E-006
"Line.611-2'.3611-2'1.3"   0.03931,     0.62     0.0398494
"Line.611-2'.3611-2'2.3"   0.03931,     0.62     0.0398494
"Line.611-2'.3611-2'3.3"   0.03931,     0.62     0.0398494
"Line.611-2'.3611-2'4.3"   0.03931,     0.62     0.0398494
"Line.611-3'.3611-3'1.3"   0.03835,     0.62     0.0388773
"Line.611-3'.3611-3'2.3"   0.03835,     0.62     0.0388773
"Line.611-3'.3611-3'3.3"   0.03835,     0.62     0.0388773
"Line.611-3'.3611-3'4.3"   0.03835,     0.62     0.0388773
"Line.611-4'.3611-4'1.3"   0.03838,     0.62     0.0389085
"Line.611-4'.3611-4'2.3"   0.03838,     0.62     0.0389085
"Line.611-4'.3611-4'3.3"   0.03838,     0.62     0.0389085
"Line.611-4'.3611-4'4.3"   0.03838,     0.62     0.0389085
"Line.611-5'.3611-5'1.3"   0.03841,     0.62     0.0389293
"Line.611-5'.3611-5'2.3"   0.03841,     0.62     0.0389293
"Line.611-5'.3611-5'3.3"   0.03841,     0.62     0.0389293
"Line.611-5'.3611-5'4.3"   0.03841,     0.62     0.0389293
"Line.611-6'.3611-6'1.3"   0.03842,     0.62     0.0389398
"Line.611-6'.3611-6'2.3"   0.03842,     0.62     0.0389398
"Line.611-6'.3611-6'3.3"   0.03842,     0.62     0.0389398
"Line.611-6'.3611-6'4.3"   0.03842,     0.62     0.0389398
"Line.611-7'.2611-7'1.2"   0.00000,      0.0     0
"Line.611-7'.2611-7'2.2"   0.00000,      0.0     0
"Line.611-7'.2611-7'3.2"   0.00000,      0.0     0
"Line.611-7'.2611-7'4.2"   0.00000,      0.0     0
"Line.611-8'.2611-8'1.2"   0.00000,      0.0     0
"Line.611-8'.2611-8'2.2"   0.00000,      0.0     0
"Line.611-8'.2611-8'3.2"   0.00000,      0.0     0
"Line.611-8'.2611-8'4.2"   0.00000,      0.0     0
"Line.652.1652-2.1"        0.11815,     0.10     0.346422
"Line.652-2.1652-3.1"      0.07527,     0.08     0.220445
"Line.652-3.1652-4.1"      0.04236,     0.06     0.12376
"Line.652-4.1652-5.1"      0.01883,     0.04     0.054649
"Line.652-5.1652-6.1"      0.00471,     0.02     0.0131618
"Line.652-6.16527.1"       0.00000,      0.0     -0.000670716
"Line.652-7.1652-8.1"      0.00000,      0.0     -0.000670716
"Line.652-1'.1652-1'1.1"   0.00000,      0.0     -4.5229E-006
"Line.652-1'.1652-1'2.1"   0.00000,      0.0     -4.5229E-006
"Line.652-1'.1652-1'3.1"   0.00000,      0.0     -4.5229E-006
"Line.652-1'.1652-1'4.1"   0.00000,      0.0     -4.5229E-006
"Line.652-2'.1652-2'1.1"   0.03899,     0.62     0.0395221
"Line.652-2'.1652-2'2.1"   0.03899,     0.62     0.0395221
"Line.652-2'.1652-2'3.1"   0.03899,     0.62     0.0395221
"Line.652-2'.1652-2'4.1"   0.03899,     0.62     0.0395221
"Line.652-3'.1652-3'1.1"   0.03805,     0.62     0.0385734
"Line.652-3'.1652-3'2.1"   0.03805,     0.62     0.0385734
"Line.652-3'.1652-3'3.1"   0.03805,     0.62     0.0385734
"Line.652-3'.1652-3'4.1"   0.03805,     0.62     0.0385734
"Line.652-4'.1652-4'1.1"   0.03810,     0.62     0.038616
"Line.652-4'.1652-4'2.1"   0.03810,     0.62     0.038616
"Line.652-4'.1652-4'3.1"   0.03810,     0.62     0.038616
"Line.652-4'.1652-4'4.1"   0.03810,     0.62     0.038616
"Line.652-5'.1652-5'1.1"   0.03812,     0.62     0.0386445
"Line.652-5'.1652-5'2.1"   0.03812,     0.62     0.0386445
"Line.652-5'.1652-5'3.1"   0.03812,     0.62     0.0386445
"Line.652-5'.1652-5'4.1"   0.03812,     0.62     0.0386445
"Line.652-6'.1652-6'1.1"   0.03814,     0.62     0.0386588
"Line.652-6'.1652-6'2.1"   0.03814,     0.62     0.0386588
"Line.652-6'.1652-6'3.1"   0.03814,     0.62     0.0386588
"Line.652-6'.1652-6'4.1"   0.03814,     0.62     0.0386588
"Line.652-7'.2652-7'1.2"   0.00000,      0.0     0
"Line.652-7'.2652-7'2.2"   0.00000,      0.0     0
"Line.652-7'.2652-7'3.2"   0.00000,      0.0     0
"Line.652-7'.2652-7'4.2"   0.00000,      0.0     0
"Line.652-8'.2652-8'1.2"   0.00000,      0.0     0
"Line.652-8'.2652-8'2.2"   0.00000,      0.0     0
"Line.652-8'.2652-8'3.2"   0.00000,      0.0     0
"Line.652-8'.2652-8'4.2"   0.00000,      0.0     0
"Line.671692"              0.00001,      0.0     0

LINE LOSSES=                        55.2 kW
TRANSFORMER LOSSES=                  2.0 kW

TOTAL LOSSES=                       57.2 kW

TOTAL LOAD POWER =                2784.1 kW
Percent Losses for Circuit =      2.05 %
