13Bus/IEEE13Nodeckt_Power_seq_kVA.txt

SYMMETRICAL COMPONENT POWERS BY CIRCUIT ELEMENT (first 3 phases)                                     Excess Power

Element                  Term    P1(kW)   Q1(kvar)       P2         Q2      P0      Q0       P_Norm      Q_Norm     P_Emerg    Q_Emerg

"Vsource.SOURCE"          1    -3021.4    -1175.9        0.0        0.0     0.0     0.0
"Vsource.SOURCE"          2        0.0        0.0        0.0        0.0     0.0     0.0
"Transformer.SUB"         1     3021.4     1175.9       -0.0       -0.0     0.0    -0.0        0.0        0.0        0.0        0.0
"Transformer.SUB"         2    -3021.4    -1175.7        0.0        0.0     0.0     0.0
"Transformer.REG1"        1        0.0        0.0        0.0        0.0     0.0     0.0        0.0        0.0        0.0        0.0
"Transformer.REG1"        2        0.0        0.0        0.0        0.0     0.0     0.0
"Transformer.REG2"        1        0.0        0.0        0.0        0.0     0.0     0.0        0.0        0.0        0.0        0.0
"Transformer.REG2"        2        0.0        0.0        0.0        0.0     0.0     0.0
"Transformer.REG3"        1        0.0        0.0        0.0        0.0     0.0     0.0        0.0        0.0        0.0        0.0
"Transformer.REG3"        2        0.0        0.0        0.0        0.0     0.0     0.0
"Transformer.634-A-1"     1        0.0        0.0        0.0        0.0     0.0     0.0        0.0        0.0        0.0        0.0
"Transformer.634-A-1"     2        0.0        0.0        0.0        0.0     0.0     0.0
"Transformer.634-A-2"     1        0.0        0.0        0.0        0.0     0.0     0.0        0.0        0.0        0.0        0.0
"Transformer.634-A-2"     2        0.0        0.0        0.0        0.0     0.0     0.0
"Transformer.634-A-3"     1        0.0        0.0        0.0        0.0     0.0     0.0        0.0        0.0        0.0        0.0
"Transformer.634-A-3"     2        0.0        0.0        0.0        0.0     0.0     0.0
"Transformer.634-A-4"     1        0.0        0.0        0.0        0.0     0.0     0.0        0.0        0.0        0.0        0.0
"Transformer.634-A-4"     2        0.0        0.0        0.0        0.0     0.0     0.0
"Transformer.634-A-5"     1        0.0        0.0        0.0        0.0     0.0     0.0        0.0        0.0        0.0        0.0
"Transformer.634-A-5"     2        0.0        0.0        0.0        0.0     0.0     0.0
"Transformer.634-A-6"     1        0.0        0.0        0.0        0.0     0.0     0.0        0.0        0.0        0.0        0.0
"Transformer.634-A-6"     2        0.0        0.0        0.0        0.0     0.0     0.0
"Transformer.634-B-1"     1        0.0        0.0        0.0        0.0     0.0     0.0        0.0        0.0        0.0        0.0
"Transformer.634-B-1"     2        0.0        0.0        0.0        0.0     0.0     0.0
"Transformer.634-B-2"     1        0.0        0.0        0.0        0.0     0.0     0.0        0.0        0.0        0.0        0.0
"Transformer.634-B-2"     2        0.0        0.0        0.0        0.0     0.0     0.0
"Transformer.634-B-3"     1        0.0        0.0        0.0        0.0     0.0     0.0        0.0        0.0        0.0        0.0
"Transformer.634-B-3"     2        0.0        0.0        0.0        0.0     0.0     0.0
"Transformer.634-B-4"     1        0.0        0.0        0.0        0.0     0.0     0.0        0.0        0.0        0.0        0.0
"Transformer.634-B-4"     2        0.0        0.0        0.0        0.0     0.0     0.0
"Transformer.634-B-5"     1        0.0        0.0        0.0        0.0     0.0     0.0        0.0        0.0        0.0        0.0
"Transformer.634-B-5"     2        0.0        0.0        0.0        0.0     0.0     0.0
"Transformer.634-B-6"     1        0.0        0.0        0.0        0.0     0.0     0.0        0.0        0.0        0.0        0.0
"Transformer.634-B-6"     2        0.0        0.0        0.0        0.0     0.0     0.0
"Transformer.634-C-1"     1        0.0        0.0        0.0        0.0     0.0     0.0        0.0        0.0        0.0        0.0
"Transformer.634-C-1"     2        0.0        0.0        0.0        0.0     0.0     0.0
"Transformer.634-C-2"     1        0.0        0.0        0.0        0.0     0.0     0.0        0.0        0.0        0.0        0.0
"Transformer.634-C-2"     2        0.0        0.0        0.0        0.0     0.0     0.0
"Transformer.634-C-3"     1        0.0        0.0        0.0        0.0     0.0     0.0        0.0        0.0        0.0        0.0
"Transformer.634-C-3"     2        0.0        0.0        0.0        0.0     0.0     0.0
"Transformer.634-C-4"     1        0.0        0.0        0.0        0.0     0.0     0.0        0.0        0.0        0.0        0.0
"Transformer.634-C-4"     2        0.0        0.0        0.0        0.0     0.0     0.0
"Transformer.634-C-5"     1        0.0        0.0        0.0        0.0     0.0     0.0        0.0        0.0        0.0        0.0
"Transformer.634-C-5"     2        0.0        0.0        0.0        0.0     0.0     0.0
"Transformer.634-C-6"     1        0.0        0.0        0.0        0.0     0.0     0.0        0.0        0.0        0.0        0.0
"Transformer.634-C-6"     2        0.0        0.0        0.0        0.0     0.0     0.0
"Transformer.633-A-1"     1        0.0        0.0        0.0        0.0     0.0     0.0        0.0        0.0        0.0        0.0
"Transformer.633-A-1"     2        0.0        0.0        0.0        0.0     0.0     0.0
"Transformer.633-A-2"     1        0.0        0.0        0.0        0.0     0.0     0.0        0.0        0.0        0.0        0.0
"Transformer.633-A-2"     2        0.0        0.0        0.0        0.0     0.0     0.0
"Transformer.633-A-3"     1        0.0        0.0        0.0        0.0     0.0     0.0        0.0        0.0        0.0        0.0
"Transformer.633-A-3"     2        0.0        0.0        0.0        0.0     0.0     0.0
"Transformer.633-A-4"     1        0.0        0.0        0.0        0.0     0.0     0.0        0.0        0.0        0.0        0.0
"Transformer.633-A-4"     2        0.0        0.0        0.0        0.0     0.0     0.0
"Transformer.633-A-5"     1        0.0        0.0        0.0        0.0     0.0     0.0        0.0        0.0        0.0        0.0
"Transformer.633-A-5"     2        0.0        0.0        0.0        0.0     0.0     0.0
"Transformer.633-A-6"     1        0.0        0.0        0.0        0.0     0.0     0.0        0.0        0.0        0.0        0.0
"Transformer.633-A-6"     2        0.0        0.0        0.0        0.0     0.0     0.0
"Transformer.633-A-7"     1        0.0        0.0        0.0        0.0     0.0     0.0        0.0        0.0        0.0        0.0
"Transformer.633-A-7"     2        0.0        0.0        0.0        0.0     0.0     0.0
"Transformer.633-A-8"     1        0.0        0.0        0.0        0.0     0.0     0.0        0.0        0.0        0.0        0.0
"Transformer.633-A-8"     2        0.0        0.0        0.0        0.0     0.0     0.0
"Transformer.633-B-1"     1        0.0        0.0        0.0        0.0     0.0     0.0        0.0        0.0        0.0        0.0
"Transformer.633-B-1"     2        0.0        0.0        0.0        0.0     0.0     0.0
"Transformer.633-B-2"     1        0.0        0.0        0.0        0.0     0.0     0.0        0.0        0.0        0.0        0.0
"Transformer.633-B-2"     2        0.0        0.0        0.0        0.0     0.0     0.0
"Transformer.633-B-3"     1        0.0        0.0        0.0        0.0     0.0     0.0        0.0        0.0        0.0        0.0
"Transformer.633-B-3"     2        0.0        0.0        0.0        0.0     0.0     0.0
"Transformer.633-B-4"     1        0.0        0.0        0.0        0.0     0.0     0.0        0.0        0.0        0.0        0.0
"Transformer.633-B-4"     2        0.0        0.0        0.0        0.0     0.0     0.0
"Transformer.633-B-5"     1        0.0        0.0        0.0        0.0     0.0     0.0        0.0        0.0        0.0        0.0
"Transformer.633-B-5"     2        0.0        0.0        0.0        0.0     0.0     0.0
"Transformer.633-B-6"     1        0.0        0.0        0.0        0.0     0.0     0.0        0.0        0.0        0.0        0.0
"Transformer.633-B-6"     2        0.0        0.0        0.0        0.0     0.0     0.0
"Transformer.633-B-7"     1        0.0        0.0        0.0        0.0     0.0     0.0        0.0        0.0        0.0        0.0
"Transformer.633-B-7"     2        0.0        0.0        0.0        0.0     0.0     0.0
"Transformer.633-B-8"     1        0.0        0.0        0.0        0.0     0.0     0.0        0.0        0.0        0.0        0.0
"Transformer.633-B-8"     2        0.0        0.0        0.0        0.0     0.0     0.0
"Transformer.633-C-1"     1        0.0        0.0        0.0        0.0     0.0     0.0        0.0        0.0        0.0        0.0
"Transformer.633-C-1"     2        0.0        0.0        0.0        0.0     0.0     0.0
"Transformer.633-C-2"     1        0.0        0.0        0.0        0.0     0.0     0.0        0.0        0.0        0.0        0.0
"Transformer.633-C-2"     2        0.0        0.0        0.0        0.0     0.0     0.0
"Transformer.633-C-3"     1        0.0        0.0        0.0        0.0     0.0     0.0        0.0        0.0        0.0        0.0
"Transformer.633-C-3"     2        0.0        0.0        0.0        0.0     0.0     0.0
"Transformer.633-C-4"     1        0.0        0.0        0.0        0.0     0.0     0.0        0.0        0.0        0.0        0.0
"Transformer.633-C-4"     2        0.0        0.0        0.0        0.0     0.0     0.0
"Transformer.633-C-5"     1        0.0        0.0        0.0        0.0     0.0     0.0        0.0        0.0        0.0        0.0
"Transformer.633-C-5"     2        0.0        0.0        0.0        0.0     0.0     0.0
"Transformer.633-C-6"     1        0.0        0.0        0.0        0.0     0.0     0.0        0.0        0.0        0.0        0.0
"Transformer.633-C-6"     2        0.0        0.0        0.0        0.0     0.0     0.0
"Transformer.633-C-7"     1        0.0        0.0        0.0        0.0     0.0     0.0        0.0        0.0        0.0        0.0
"Transformer.633-C-7"     2        0.0        0.0        0.0        0.0     0.0     0.0
"Transformer.633-C-8"     1        0.0        0.0        0.0        0.0     0.0     0.0        0.0        0.0        0.0        0.0
"Transformer.633-C-8"     2        0.0        0.0        0.0        0.0     0.0     0.0
"Transformer.611-C-1"     1        0.0        0.0        0.0        0.0     0.0     0.0        0.0        0.0        0.0        0.0
"Transformer.611-C-1"     2        0.0        0.0        0.0        0.0     0.0     0.0
"Transformer.611-C-2"     1        0.0        0.0        0.0        0.0     0.0     0.0        0.0        0.0        0.0        0.0
"Transformer.611-C-2"     2        0.0        0.0        0.0        0.0     0.0     0.0
"Transformer.611-C-3"     1        0.0        0.0        0.0        0.0     0.0     0.0        0.0        0.0        0.0        0.0
"Transformer.611-C-3"     2        0.0        0.0        0.0        0.0     0.0     0.0
"Transformer.611-C-4"     1        0.0        0.0        0.0        0.0     0.0     0.0        0.0        0.0        0.0        0.0
"Transformer.611-C-4"     2        0.0        0.0        0.0        0.0     0.0     0.0
"Transformer.611-C-5"     1        0.0        0.0        0.0        0.0     0.0     0.0        0.0        0.0        0.0        0.0
"Transformer.611-C-5"     2        0.0        0.0        0.0        0.0     0.0     0.0
"Transformer.611-C-6"     1        0.0        0.0        0.0        0.0     0.0     0.0        0.0        0.0        0.0        0.0
"Transformer.611-C-6"     2        0.0        0.0        0.0        0.0     0.0     0.0
"Transformer.611-C-7"     1        0.0        0.0        0.0        0.0     0.0     0.0        0.0        0.0        0.0        0.0
"Transformer.611-C-7"     2        0.0        0.0        0.0        0.0     0.0     0.0
"Transformer.611-C-8"     1        0.0        0.0        0.0        0.0     0.0     0.0        0.0        0.0        0.0        0.0
"Transformer.611-C-8"     2        0.0        0.0        0.0        0.0     0.0     0.0
"Transformer.652-A-1"     1        0.0        0.0        0.0        0.0     0.0     0.0        0.0        0.0        0.0        0.0
"Transformer.652-A-1"     2        0.0        0.0        0.0        0.0     0.0     0.0
"Transformer.652-A-2"     1        0.0        0.0        0.0        0.0     0.0     0.0        0.0        0.0        0.0        0.0
"Transformer.652-A-2"     2        0.0        0.0        0.0        0.0     0.0     0.0
"Transformer.652-A-3"     1        0.0        0.0        0.0        0.0     0.0     0.0        0.0        0.0        0.0        0.0
"Transformer.652-A-3"     2        0.0        0.0        0.0        0.0     0.0     0.0
"Transformer.652-A-4"     1        0.0        0.0        0.0        0.0     0.0     0.0        0.0        0.0        0.0        0.0
"Transformer.652-A-4"     2        0.0        0.0        0.0        0.0     0.0     0.0
"Transformer.652-A-5"     1        0.0        0.0        0.0        0.0     0.0     0.0        0.0        0.0        0.0        0.0
"Transformer.652-A-5"     2        0.0        0.0        0.0        0.0     0.0     0.0
"Transformer.652-A-6"     1        0.0        0.0        0.0        0.0     0.0     0.0        0.0        0.0        0.0        0.0
"Transformer.652-A-6"     2        0.0        0.0        0.0        0.0     0.0     0.0
"Transformer.652-A-7"     1        0.0        0.0        0.0        0.0     0.0     0.0        0.0        0.0        0.0        0.0
"Transformer.652-A-7"     2        0.0        0.0        0.0        0.0     0.0     0.0
"Transformer.652-A-8"     1        0.0        0.0        0.0        0.0     0.0     0.0        0.0        0.0        0.0        0.0
"Transformer.652-A-8"     2        0.0        0.0        0.0        0.0     0.0     0.0
"Capacitor.CAP1"          1        0.0     -596.4       -0.0       -0.2    -0.0    -0.5        0.0        0.0        0.0        0.0
"Capacitor.CAP1"          2        0.0        0.0        0.0        0.0     0.0     0.0
"Capacitor.CAP2"          1        0.0        0.0        0.0        0.0     0.0     0.0        0.0        0.0        0.0        0.0
"Capacitor.CAP2"          2        0.0        0.0        0.0        0.0     0.0     0.0
"Line.650632"             1     3020.5     1174.8        0.3        0.4     0.3     0.2      462.5      179.9        0.0        0.0
"Line.650632"             2    -2982.4    -1047.6        0.9        1.2     0.6     1.1
"Line.632670"             1     2448.9      786.3       -3.3       -1.1    -1.3    -2.4      163.3       52.3        0.0        0.0
"Line.632670"             2    -2441.2     -758.3        4.5        2.8     2.3     4.5
"Line.670671"             1     2240.6      642.1       -5.1       -2.1    -1.2    -5.1      109.2       31.0        0.0        0.0
"Line.670671"             2    -2228.0     -595.7        7.5        5.4     3.3     9.8
"Line.671680"             1        0.0       -0.0        0.0       -0.0     0.0    -0.0        0.0        0.0        0.0        0.0
"Line.671680"             2       -0.0       -0.0       -0.0       -0.0     0.0    -0.0
"Line.632633"             1      128.8        0.2        0.0        0.0     0.0    -0.0        0.0        0.0        0.0        0.0
"Line.632633"             2     -128.7       -0.1       -0.0       -0.0    -0.0     0.0
"Line.632645"             1        0.0        0.0        0.0        0.0     0.0     0.0        0.0        0.0        0.0        0.0
"Line.632645"             2        0.0        0.0        0.0        0.0     0.0     0.0
"Line.645646"             1        0.0        0.0        0.0        0.0     0.0     0.0        0.0        0.0        0.0        0.0
"Line.645646"             2        0.0        0.0        0.0        0.0     0.0     0.0
"Line.692675"             1      855.7     -118.9       -4.4       -2.1    -4.1   -11.6        0.0        0.0        0.0        0.0
"Line.692675"             2     -853.7      120.4        4.7        2.4     5.9    12.2
"Line.671684"             1        0.0        0.0        0.0        0.0     0.0     0.0        0.0        0.0        0.0        0.0
"Line.671684"             2        0.0        0.0        0.0        0.0     0.0     0.0
"Line.684611"             1        0.0        0.0        0.0        0.0     0.0     0.0        0.0        0.0        0.0        0.0
"Line.684611"             2        0.0        0.0        0.0        0.0     0.0     0.0
"Line.684652"             1        0.0        0.0        0.0        0.0     0.0     0.0        0.0        0.0        0.0        0.0
"Line.684652"             2        0.0        0.0        0.0        0.0     0.0     0.0
"Line.6336304"            1       57.9        0.1        0.0        0.0     0.0     0.0        0.0        0.0        0.0        0.0
"Line.6336304"            2      -57.9       -0.0       -0.0       -0.0    -0.0    -0.0
"Line.634.1634-2.1"       1       28.6        1.2       -0.0        0.1     0.0    -0.0        0.0        0.0        0.0        0.0
"Line.634.1634-2.1"       2      -28.6       -1.2        0.0       -0.1    -0.0     0.0
"Line.634-2.1634-3.1"     1       22.9        0.9       -0.0        0.1     0.0    -0.0        0.0        0.0        0.0        0.0
"Line.634-2.1634-3.1"     2      -22.8       -0.9        0.0       -0.1    -0.0     0.0
"Line.634-3.1634-4.1"     1       17.1        0.7       -0.0        0.0     0.0    -0.0        0.0        0.0        0.0        0.0
"Line.634-3.1634-4.1"     2      -17.1       -0.7        0.0       -0.0    -0.0     0.0
"Line.634-4.1634-5.1"     1       11.4        0.5       -0.0        0.0     0.0    -0.0        0.0        0.0        0.0        0.0
"Line.634-4.1634-5.1"     2      -11.4       -0.5        0.0       -0.0    -0.0     0.0
"Line.634-5.1634-6.1"     1        5.7        0.2       -0.0        0.0     0.0    -0.0        0.0        0.0        0.0        0.0
"Line.634-5.1634-6.1"     2       -5.7       -0.2        0.0       -0.0    -0.0     0.0
"Line.634.2634-2.2"       1        4.1        0.0        3.9       -0.4     1.3    -0.0        0.0        0.0        0.0        0.0
"Line.634.2634-2.2"       2       -4.1       -0.0       -3.9        0.4    -1.3     0.0
"Line.634-2.2634-3.2"     1        3.3        0.0        3.1       -0.3     1.1    -0.0        0.0        0.0        0.0        0.0
"Line.634-2.2634-3.2"     2       -3.3       -0.0       -3.1        0.3    -1.1     0.0
"Line.634-3.2634-4.2"     1        2.5        0.0        2.4       -0.2     0.8    -0.0        0.0        0.0        0.0        0.0
"Line.634-3.2634-4.2"     2       -2.5       -0.0       -2.4        0.2    -0.8     0.0
"Line.634-4.2634-5.2"     1        1.6        0.0        1.6       -0.2     0.5    -0.0        0.0        0.0        0.0        0.0
"Line.634-4.2634-5.2"     2       -1.6       -0.0       -1.6        0.2    -0.5     0.0
"Line.634-5.2634-6.2"     1        0.8        0.0        0.8       -0.1     0.3    -0.0        0.0        0.0        0.0        0.0
"Line.634-5.2634-6.2"     2       -0.8       -0.0       -0.8        0.1    -0.3     0.0
"Line.634.3634-2.3"       1        4.4       -0.8        4.7        0.1     1.3    -0.1        0.0        0.0        0.0        0.0
"Line.634.3634-2.3"       2       -4.4        0.8       -4.7       -0.1    -1.3     0.1
"Line.634-2.3634-3.3"     1        3.5       -0.7        3.7        0.1     1.1    -0.1        0.0        0.0        0.0        0.0
"Line.634-2.3634-3.3"     2       -3.5        0.7       -3.7       -0.1    -1.1     0.1
"Line.634-3.3634-4.3"     1        2.6       -0.5        2.8        0.1     0.8    -0.0        0.0        0.0        0.0        0.0
"Line.634-3.3634-4.3"     2       -2.6        0.5       -2.8       -0.1    -0.8     0.0
"Line.634-4.3634-5.3"     1        1.8       -0.3        1.9        0.0     0.5    -0.0        0.0        0.0        0.0        0.0
"Line.634-4.3634-5.3"     2       -1.8        0.3       -1.9       -0.0    -0.5     0.0
"Line.634-5.3634-6.3"     1        0.9       -0.2        0.9        0.0     0.3    -0.0        0.0        0.0        0.0        0.0
"Line.634-5.3634-6.3"     2       -0.9        0.2       -0.9       -0.0    -0.3     0.0
"Line.634-1'.1634-1'1.1"  1        0.0        0.0        0.0        0.0     0.0     0.0        0.0        0.0        0.0        0.0
"Line.634-1'.1634-1'1.1"  2        0.0        0.0        0.0        0.0     0.0     0.0
"Line.634-1'.1634-1'2.1"  1        0.0        0.0        0.0        0.0     0.0     0.0        0.0        0.0        0.0        0.0
"Line.634-1'.1634-1'2.1"  2        0.0        0.0        0.0        0.0     0.0     0.0
"Line.634-1'.1634-1'3.1"  1        0.0        0.0        0.0        0.0     0.0     0.0        0.0        0.0        0.0        0.0
"Line.634-1'.1634-1'3.1"  2        0.0        0.0        0.0        0.0     0.0     0.0
"Line.634-1'.1634-1'4.1"  1        0.0        0.0        0.0        0.0     0.0     0.0        0.0        0.0        0.0        0.0
"Line.634-1'.1634-1'4.1"  2        0.0        0.0        0.0        0.0     0.0     0.0
"Line.634-2'.1634-2'1.1"  1        0.0        0.0        0.0        0.0     0.0     0.0        0.0        0.0        0.0        0.0
"Line.634-2'.1634-2'1.1"  2        0.0        0.0        0.0        0.0     0.0     0.0
"Line.634-2'.1634-2'2.1"  1        0.0        0.0        0.0        0.0     0.0     0.0        0.0        0.0        0.0        0.0
"Line.634-2'.1634-2'2.1"  2        0.0        0.0        0.0        0.0     0.0     0.0
"Line.634-2'.1634-2'3.1"  1        0.0        0.0        0.0        0.0     0.0     0.0        0.0        0.0        0.0        0.0
"Line.634-2'.1634-2'3.1"  2        0.0        0.0        0.0        0.0     0.0     0.0
"Line.634-2'.1634-2'4.1"  1        0.0        0.0        0.0        0.0     0.0     0.0        0.0        0.0        0.0        0.0
"Line.634-2'.1634-2'4.1"  2        0.0        0.0        0.0        0.0     0.0     0.0
"Line.634-3'.1634-3'1.1"  1        0.0        0.0        0.0        0.0     0.0     0.0        0.0        0.0        0.0        0.0
"Line.634-3'.1634-3'1.1"  2        0.0        0.0        0.0        0.0     0.0     0.0
"Line.634-3'.1634-3'2.1"  1        0.0        0.0        0.0        0.0     0.0     0.0        0.0        0.0        0.0        0.0
"Line.634-3'.1634-3'2.1"  2        0.0        0.0        0.0        0.0     0.0     0.0
"Line.634-3'.1634-3'3.1"  1        0.0        0.0        0.0        0.0     0.0     0.0        0.0        0.0        0.0        0.0
"Line.634-3'.1634-3'3.1"  2        0.0        0.0        0.0        0.0     0.0     0.0
"Line.634-3'.1634-3'4.1"  1        0.0        0.0        0.0        0.0     0.0     0.0        0.0        0.0        0.0        0.0
"Line.634-3'.1634-3'4.1"  2        0.0        0.0        0.0        0.0     0.0     0.0
"Line.634-4'.1634-4'1.1"  1        0.0        0.0        0.0        0.0     0.0     0.0        0.0        0.0        0.0        0.0
"Line.634-4'.1634-4'1.1"  2        0.0        0.0        0.0        0.0     0.0     0.0
"Line.634-4'.1634-4'2.1"  1        0.0        0.0        0.0        0.0     0.0     0.0        0.0        0.0        0.0        0.0
"Line.634-4'.1634-4'2.1"  2        0.0        0.0        0.0        0.0     0.0     0.0
"Line.634-4'.1634-4'3.1"  1        0.0        0.0        0.0        0.0     0.0     0.0        0.0        0.0        0.0        0.0
"Line.634-4'.1634-4'3.1"  2        0.0        0.0        0.0        0.0     0.0     0.0
"Line.634-4'.1634-4'4.1"  1        0.0        0.0        0.0        0.0     0.0     0.0        0.0        0.0        0.0        0.0
"Line.634-4'.1634-4'4.1"  2        0.0        0.0        0.0        0.0     0.0     0.0
"Line.634-5'.1634-5'1.1"  1        0.0        0.0        0.0        0.0     0.0     0.0        0.0        0.0        0.0        0.0
"Line.634-5'.1634-5'1.1"  2        0.0        0.0        0.0        0.0     0.0     0.0
"Line.634-5'.1634-5'2.1"  1        0.0        0.0        0.0        0.0     0.0     0.0        0.0        0.0        0.0        0.0
"Line.634-5'.1634-5'2.1"  2        0.0        0.0        0.0        0.0     0.0     0.0
"Line.634-5'.1634-5'3.1"  1        0.0        0.0        0.0        0.0     0.0     0.0        0.0        0.0        0.0        0.0
"Line.634-5'.1634-5'3.1"  2        0.0        0.0        0.0        0.0     0.0     0.0
"Line.634-5'.1634-5'4.1"  1        0.0        0.0        0.0        0.0     0.0     0.0        0.0        0.0        0.0        0.0
"Line.634-5'.1634-5'4.1"  2        0.0        0.0        0.0        0.0     0.0     0.0
"Line.634-6'.1634-6'1.1"  1        0.0        0.0        0.0        0.0     0.0     0.0        0.0        0.0        0.0        0.0
"Line.634-6'.1634-6'1.1"  2        0.0        0.0        0.0        0.0     0.0     0.0
"Line.634-6'.1634-6'2.1"  1        0.0        0.0        0.0        0.0     0.0     0.0        0.0        0.0        0.0        0.0
"Line.634-6'.1634-6'2.1"  2        0.0        0.0        0.0        0.0     0.0     0.0
"Line.634-6'.1634-6'3.1"  1        0.0        0.0        0.0        0.0     0.0     0.0        0.0        0.0        0.0        0.0
"Line.634-6'.1634-6'3.1"  2        0.0        0.0        0.0        0.0     0.0     0.0
"Line.634-6'.1634-6'4.1"  1        0.0        0.0        0.0        0.0     0.0     0.0        0.0        0.0        0.0        0.0
"Line.634-6'.1634-6'4.1"  2        0.0        0.0        0.0        0.0     0.0     0.0
"Line.634-1'.2634-1'1.2"  1        0.0        0.0        0.0        0.0     0.0     0.0        0.0        0.0        0.0        0.0
"Line.634-1'.2634-1'1.2"  2        0.0        0.0        0.0        0.0     0.0     0.0
"Line.634-1'.2634-1'2.2"  1        0.0        0.0        0.0        0.0     0.0     0.0        0.0        0.0        0.0        0.0
"Line.634-1'.2634-1'2.2"  2        0.0        0.0        0.0        0.0     0.0     0.0
"Line.634-1'.2634-1'3.2"  1        0.0        0.0        0.0        0.0     0.0     0.0        0.0        0.0        0.0        0.0
"Line.634-1'.2634-1'3.2"  2        0.0        0.0        0.0        0.0     0.0     0.0
"Line.634-1'.2634-1'4.2"  1        0.0        0.0        0.0        0.0     0.0     0.0        0.0        0.0        0.0        0.0
"Line.634-1'.2634-1'4.2"  2        0.0        0.0        0.0        0.0     0.0     0.0
"Line.634-2'.2634-2'1.2"  1        0.0        0.0        0.0        0.0     0.0     0.0        0.0        0.0        0.0        0.0
"Line.634-2'.2634-2'1.2"  2        0.0        0.0        0.0        0.0     0.0     0.0
"Line.634-2'.2634-2'2.2"  1        0.0        0.0        0.0        0.0     0.0     0.0        0.0        0.0        0.0        0.0
"Line.634-2'.2634-2'2.2"  2        0.0        0.0        0.0        0.0     0.0     0.0
"Line.634-2'.2634-2'3.2"  1        0.0        0.0        0.0        0.0     0.0     0.0        0.0        0.0        0.0        0.0
"Line.634-2'.2634-2'3.2"  2        0.0        0.0        0.0        0.0     0.0     0.0
"Line.634-2'.2634-2'4.2"  1        0.0        0.0        0.0        0.0     0.0     0.0        0.0        0.0        0.0        0.0
"Line.634-2'.2634-2'4.2"  2        0.0        0.0        0.0        0.0     0.0     0.0
"Line.634-3'.2634-3'1.2"  1        0.0        0.0        0.0        0.0     0.0     0.0        0.0        0.0        0.0        0.0
"Line.634-3'.2634-3'1.2"  2        0.0        0.0        0.0        0.0     0.0     0.0
"Line.634-3'.2634-3'2.2"  1        0.0        0.0        0.0        0.0     0.0     0.0        0.0        0.0        0.0        0.0
"Line.634-3'.2634-3'2.2"  2        0.0        0.0        0.0        0.0     0.0     0.0
"Line.634-3'.2634-3'3.2"  1        0.0        0.0        0.0        0.0     0.0     0.0        0.0        0.0        0.0        0.0
"Line.634-3'.2634-3'3.2"  2        0.0        0.0        0.0        0.0     0.0     0.0
"Line.634-3'.2634-3'4.2"  1        0.0        0.0        0.0        0.0     0.0     0.0        0.0        0.0        0.0        0.0
"Line.634-3'.2634-3'4.2"  2        0.0        0.0        0.0        0.0     0.0     0.0
"Line.634-4'.2634-4'1.2"  1        0.0        0.0        0.0        0.0     0.0     0.0        0.0        0.0        0.0        0.0
"Line.634-4'.2634-4'1.2"  2        0.0        0.0        0.0        0.0     0.0     0.0
"Line.634-4'.2634-4'2.2"  1        0.0        0.0        0.0        0.0     0.0     0.0        0.0        0.0        0.0        0.0
"Line.634-4'.2634-4'2.2"  2        0.0        0.0        0.0        0.0     0.0     0.0
"Line.634-4'.2634-4'3.2"  1        0.0        0.0        0.0        0.0     0.0     0.0        0.0        0.0        0.0        0.0
"Line.634-4'.2634-4'3.2"  2        0.0        0.0        0.0        0.0     0.0     0.0
"Line.634-4'.2634-4'4.2"  1        0.0        0.0        0.0        0.0     0.0     0.0        0.0        0.0        0.0        0.0
"Line.634-4'.2634-4'4.2"  2        0.0        0.0        0.0        0.0     0.0     0.0
"Line.634-5'.2634-5'1.2"  1        0.0        0.0        0.0        0.0     0.0     0.0        0.0        0.0        0.0        0.0
"Line.634-5'.2634-5'1.2"  2        0.0        0.0        0.0        0.0     0.0     0.0
"Line.634-5'.2634-5'2.2"  1        0.0        0.0        0.0        0.0     0.0     0.0        0.0        0.0        0.0        0.0
"Line.634-5'.2634-5'2.2"  2        0.0        0.0        0.0        0.0     0.0     0.0
"Line.634-5'.2634-5'3.2"  1        0.0        0.0        0.0        0.0     0.0     0.0        0.0        0.0        0.0        0.0
"Line.634-5'.2634-5'3.2"  2        0.0        0.0        0.0        0.0     0.0     0.0
...