13Bus/IEEE13Nodeckt_VLN.Txt

SYMMETRICAL COMPONENT VOLTAGES BY BUS (for 3-phase buses)

Bus        Mag:   V1 (kV)    p.u.     V2 (kV)   %V2/V1    V0 (kV)    %V0/V1

sourcebus      66.4          1  0.0006635  0.0009993 4.32E-009 6.506E-009
650           2.402          1  3.17E-005    0.00132 3.315E-006  0.000138
rg60          2.487      1.035   0.004961     0.1995  0.004995    0.2009
634           2.448      1.019   0.007396     0.3021  0.007732    0.3158
634-1'       0.2828       1.02  0.0005859     0.2072  0.001163    0.4112
634-2         2.449       1.02   0.008524     0.3481  0.006942    0.2835
634-2'        0.283      1.021  0.0009851      0.348 0.0008023    0.2835
634-3          2.45       1.02   0.009438     0.3853  0.006409    0.2616
634-3'       0.2831      1.022   0.001091     0.3853 0.0007407    0.2616
634-4          2.45       1.02    0.01013     0.4134  0.006082    0.2483
634-4'       0.2832      1.022   0.001171     0.4134 0.0007029    0.2482
634-5          2.45       1.02    0.01059     0.4323  0.005905     0.241
634-5'       0.2832      1.022   0.001224     0.4323 0.0006825     0.241
634-6          2.45       1.02    0.01082     0.4417  0.005831    0.2379
634-6'       0.2832      1.022   0.001251     0.4417 0.0006738    0.2379
633           2.447      1.019   0.008115     0.3316   0.00742    0.3032
633-1'       0.2828       1.02  0.0009379     0.3316 0.0008575    0.3032
633-2         2.448      1.019   0.009516     0.3888  0.006331    0.2586
633-2'       0.2829      1.021     0.0011     0.3888 0.0007317    0.2586
633-3         2.448      1.019    0.01071     0.4374  0.005586    0.2282
633-3'        0.283      1.021   0.001238     0.4374 0.0006456    0.2282
633-4         2.449       1.02    0.01168      0.477   0.00514    0.2099
633-4'        0.283      1.021    0.00135      0.477  0.000594    0.2099
633-5         2.449       1.02    0.01243     0.5073  0.004903    0.2002
633-5'       0.2831      1.021   0.001436     0.5073 0.0005666    0.2002
633-6          2.45       1.02    0.01294     0.5284  0.004771    0.1947
633-6'       0.2831      1.022   0.001496     0.5284 0.0005513    0.1947
633-7          2.45       1.02    0.01323       0.54  0.004652    0.1899
633-7'        0.283      1.021   0.001794     0.6341 0.0003592    0.1269
633-8          2.45       1.02    0.01324     0.5403  0.004649    0.1898
633-8'       0.2827       1.02   0.001534     0.5425 0.0005305    0.1877
611           2.397     0.9982          0          0         0         0
611-1'       0.2771     0.9998          0          0         0         0
611-2         2.399     0.9989          0          0         0         0
611-2'       0.2773          1          0          0         0         0
611-3           2.4     0.9994          0          0         0         0
611-3'       0.2774      1.001          0          0         0         0
611-4         2.401     0.9998          0          0         0         0
611-4'       0.2775      1.001          0          0         0         0
611-5         2.402          1          0          0         0         0
611-5'       0.2776      1.002          0          0         0         0
611-6         2.402          1          0          0         0         0
611-6'       0.2776      1.002          0          0         0         0
611-7         2.402          1          0          0         0         0
611-7'       0.2772          1          0          0         0         0
611-8         2.402          1          0          0         0         0
611-8'       0.2772          1          0          0         0         0
652          0.5771     0.2403     0.5764      99.89     1.224     212.2
652-1'       0.2748     0.9917          0          0         0         0
652-2        0.5774     0.2404      0.577      99.94     1.226     212.3
652-2'       0.2751     0.9926          0          0         0         0
652-3        0.5776     0.2405     0.5774      99.98     1.227     212.4
652-3'       0.2753     0.9934          0          0         0         0
652-4        0.5777     0.2405     0.5778        100     1.228     212.5
652-4'       0.2754     0.9939          0          0         0         0
652-5        0.5778     0.2406      0.578        100     1.228     212.6
652-5'       0.2755     0.9943          0          0         0         0
652-6        0.5779     0.2406     0.5781        100     1.229     212.6
652-6'       0.2756     0.9945          0          0         0         0
652-7        0.5779     0.2406     0.5781        100     1.229     212.6
652-7'       0.2751     0.9928          0          0         0         0
652-8        0.5779     0.2406     0.5781        100     1.229     212.6
652-8'       0.2751     0.9928          0          0         0         0
671           2.402          1    0.02315     0.9639   0.03883     1.617
645            2.43      1.012          0          0         0         0
646           2.426       1.01          0          0         0         0
692           2.402          1    0.02315     0.9639   0.03883     1.617
675           2.397     0.9982    0.02591      1.081    0.0475     1.981
670           2.426       1.01    0.01319     0.5436   0.01527    0.6294
634-1'1       0.284      1.025  0.0007107     0.2503  0.001979    0.6969
634-1'2       0.284      1.025  0.0007107     0.2503  0.001979    0.6969
634-1'3       0.284      1.025  0.0007154     0.2519  0.001985    0.6992
634-1'4       0.284      1.025  0.0007154     0.2519  0.001985    0.6992
634-2'1      0.2848      1.028  0.0009912      0.348 0.0008072    0.2835
634-2'2      0.2848      1.028  0.0009912      0.348 0.0008072    0.2835
634-2'3      0.2848      1.028  0.0009912      0.348 0.0008072    0.2835
634-2'4      0.2848      1.028  0.0009912      0.348 0.0008072    0.2835
634-3'1      0.2848      1.028   0.001097     0.3853 0.0007452    0.2616
634-3'2      0.2848      1.028   0.001097     0.3853 0.0007452    0.2616
634-3'3      0.2848      1.028   0.001097     0.3853 0.0007452    0.2616
634-3'4      0.2848      1.028   0.001097     0.3853 0.0007452    0.2616
634-4'1      0.2849      1.028   0.001178     0.4134 0.0007072    0.2482
634-4'2      0.2849      1.028   0.001178     0.4134 0.0007072    0.2482
634-4'3      0.2849      1.028   0.001178     0.4134 0.0007072    0.2482
634-4'4      0.2849      1.028   0.001178     0.4134 0.0007072    0.2482
634-5'1      0.2849      1.028   0.001232     0.4323 0.0006867     0.241
634-5'2      0.2849      1.028   0.001232     0.4323 0.0006867     0.241
634-5'3      0.2849      1.028   0.001232     0.4323 0.0006867     0.241
634-5'4      0.2849      1.028   0.001232     0.4323 0.0006867     0.241
634-6'1      0.2849      1.028   0.001259     0.4417  0.000678    0.2379
634-6'2      0.2849      1.028   0.001259     0.4417  0.000678    0.2379
634-6'3      0.2849      1.028   0.001259     0.4417  0.000678    0.2379
634-6'4      0.2849      1.028   0.001259     0.4417  0.000678    0.2379
633-1'1      0.2845      1.027  0.0009436     0.3316 0.0008628    0.3032
633-1'2      0.2845      1.027  0.0009436     0.3316 0.0008628    0.3032
633-1'3      0.2845      1.027  0.0009436     0.3316 0.0008628    0.3032
633-1'4      0.2845      1.027  0.0009436     0.3316 0.0008628    0.3032
633-2'1      0.2846      1.027   0.001107     0.3888 0.0007361    0.2586
633-2'2      0.2846      1.027   0.001107     0.3888 0.0007361    0.2586
633-2'3      0.2846      1.027   0.001107     0.3888 0.0007361    0.2586
633-2'4      0.2846      1.027   0.001107     0.3888 0.0007361    0.2586
633-3'1      0.2847      1.027   0.001245     0.4374 0.0006496    0.2282
633-3'2      0.2847      1.027   0.001245     0.4374 0.0006496    0.2282
633-3'3      0.2847      1.027   0.001245     0.4374 0.0006496    0.2282
633-3'4      0.2847      1.027   0.001245     0.4374 0.0006496    0.2282
633-4'1      0.2848      1.028   0.001358      0.477 0.0005976    0.2099
633-4'2      0.2848      1.028   0.001358      0.477 0.0005976    0.2099
633-4'3      0.2848      1.028   0.001358      0.477 0.0005976    0.2099
633-4'4      0.2848      1.028   0.001358      0.477 0.0005976    0.2099
633-5'1      0.2848      1.028   0.001445     0.5073 0.0005701    0.2002
633-5'2      0.2848      1.028   0.001445     0.5073 0.0005701    0.2002
633-5'3      0.2848      1.028   0.001445     0.5073 0.0005701    0.2002
633-5'4      0.2848      1.028   0.001445     0.5073 0.0005701    0.2002
633-6'1      0.2848      1.028   0.001505     0.5284 0.0005547    0.1947
633-6'2      0.2848      1.028   0.001505     0.5284 0.0005547    0.1947
633-6'3      0.2848      1.028   0.001505     0.5284 0.0005547    0.1947
633-6'4      0.2848      1.028   0.001505     0.5284 0.0005547    0.1947
633-7'1      0.1899     0.6853    0.09618      50.64   0.09374     49.36
633-7'2      0.1899     0.6853    0.09618      50.64   0.09374     49.36
633-7'3      0.1899     0.6853    0.09618      50.64   0.09374     49.36
633-7'4      0.1899     0.6853    0.09618      50.64   0.09374     49.36
633-8'1      0.1888     0.6812    0.09535      50.51   0.09343     49.49
633-8'2      0.1888     0.6812    0.09535      50.51   0.09343     49.49
633-8'3      0.1888     0.6812    0.09535      50.51   0.09343     49.49
633-8'4      0.1888     0.6812    0.09535      50.51   0.09343     49.49
611-1'1      0.2788      1.006          0          0         0         0
611-1'2      0.2788      1.006          0          0         0         0
611-1'3      0.2788      1.006          0          0         0         0
611-1'4      0.2788      1.006          0          0         0         0
611-2'1       0.279      1.007          0          0         0         0
611-2'2       0.279      1.007          0          0         0         0
611-2'3       0.279      1.007          0          0         0         0
611-2'4       0.279      1.007          0          0         0         0
611-3'1      0.2791      1.007          0          0         0         0
611-3'2      0.2791      1.007          0          0         0         0
611-3'3      0.2791      1.007          0          0         0         0
611-3'4      0.2791      1.007          0          0         0         0
611-4'1      0.2792      1.008          0          0         0         0
611-4'2      0.2792      1.008          0          0         0         0
611-4'3      0.2792      1.008          0          0         0         0
611-4'4      0.2792      1.008          0          0         0         0
611-5'1      0.2793      1.008          0          0         0         0
611-5'2      0.2793      1.008          0          0         0         0
611-5'3      0.2793      1.008          0          0         0         0
611-5'4      0.2793      1.008          0          0         0         0
611-6'1      0.2793      1.008          0          0         0         0
611-6'2      0.2793      1.008          0          0         0         0
611-6'3      0.2793      1.008          0          0         0         0
611-6'4      0.2793      1.008          0          0         0         0
611-7'1           0          0          0          0         0         0
611-7'2           0          0          0          0         0         0
611-7'3           0          0          0          0         0         0
611-7'4           0          0          0          0         0         0
611-8'1           0          0          0          0         0         0
611-8'2           0          0          0          0         0         0
611-8'3           0          0          0          0         0         0
611-8'4           0          0          0          0         0         0
652-1'1      0.2765     0.9978          0          0         0         0
652-1'2      0.2765     0.9978          0          0         0         0
652-1'3      0.2765     0.9978          0          0         0         0
652-1'4      0.2765     0.9978          0          0         0         0
652-2'1      0.2768     0.9987          0          0         0         0
652-2'2      0.2768     0.9987          0          0         0         0
652-2'3      0.2768     0.9987          0          0         0         0
652-2'4      0.2768     0.9987          0          0         0         0
652-3'1       0.277     0.9994          0          0         0         0
652-3'2       0.277     0.9994          0          0         0         0
652-3'3       0.277     0.9994          0          0         0         0
652-3'4       0.277     0.9994          0          0         0         0
652-4'1      0.2771          1          0          0         0         0
652-4'2      0.2771          1          0          0         0         0
652-4'3      0.2771          1          0          0         0         0
652-4'4      0.2771          1          0          0         0         0
652-5'1      0.2772          1          0          0         0         0
652-5'2      0.2772          1          0          0         0         0
652-5'3      0.2772          1          0          0         0         0
652-5'4      0.2772          1          0          0         0         0
652-6'1      0.2773      1.001          0          0         0         0
652-6'2      0.2773      1.001          0          0         0         0
652-6'3      0.2773      1.001          0          0         0         0
652-6'4      0.2773      1.001          0          0         0         0
652-7'1           0          0          0          0         0         0
652-7'2           0          0          0          0         0         0
652-7'3           0          0          0          0         0         0
652-7'4           0          0          0          0         0         0
652-8'1           0          0          0          0         0         0
652-8'2           0          0          0          0         0         0
652-8'3           0          0          0          0         0         0
652-8'4           0          0          0          0         0         0
632            2.44      1.016   0.008812     0.3612  0.007395    0.3031
680           2.402          1    0.02315     0.9639   0.03883     1.617
684           2.365     0.9849          0          0         0         0
